* NGSPICE file created from diff_pair_sample_0437.ext - technology: sky130A

.subckt diff_pair_sample_0437 VTAIL VN VP B VDD2 VDD1
X0 B.t17 B.t15 B.t16 B.t9 sky130_fd_pr__nfet_01v8 ad=6.8211 pd=35.76 as=0 ps=0 w=17.49 l=1.36
X1 VTAIL.t7 VP.t0 VDD1.t0 B.t1 sky130_fd_pr__nfet_01v8 ad=6.8211 pd=35.76 as=2.88585 ps=17.82 w=17.49 l=1.36
X2 VTAIL.t3 VN.t0 VDD2.t3 B.t1 sky130_fd_pr__nfet_01v8 ad=6.8211 pd=35.76 as=2.88585 ps=17.82 w=17.49 l=1.36
X3 VDD2.t2 VN.t1 VTAIL.t2 B.t2 sky130_fd_pr__nfet_01v8 ad=2.88585 pd=17.82 as=6.8211 ps=35.76 w=17.49 l=1.36
X4 VDD1.t1 VP.t1 VTAIL.t6 B.t2 sky130_fd_pr__nfet_01v8 ad=2.88585 pd=17.82 as=6.8211 ps=35.76 w=17.49 l=1.36
X5 VDD2.t1 VN.t2 VTAIL.t0 B.t0 sky130_fd_pr__nfet_01v8 ad=2.88585 pd=17.82 as=6.8211 ps=35.76 w=17.49 l=1.36
X6 VTAIL.t5 VP.t2 VDD1.t3 B.t3 sky130_fd_pr__nfet_01v8 ad=6.8211 pd=35.76 as=2.88585 ps=17.82 w=17.49 l=1.36
X7 VDD1.t2 VP.t3 VTAIL.t4 B.t0 sky130_fd_pr__nfet_01v8 ad=2.88585 pd=17.82 as=6.8211 ps=35.76 w=17.49 l=1.36
X8 B.t14 B.t12 B.t13 B.t5 sky130_fd_pr__nfet_01v8 ad=6.8211 pd=35.76 as=0 ps=0 w=17.49 l=1.36
X9 B.t11 B.t8 B.t10 B.t9 sky130_fd_pr__nfet_01v8 ad=6.8211 pd=35.76 as=0 ps=0 w=17.49 l=1.36
X10 B.t7 B.t4 B.t6 B.t5 sky130_fd_pr__nfet_01v8 ad=6.8211 pd=35.76 as=0 ps=0 w=17.49 l=1.36
X11 VTAIL.t1 VN.t3 VDD2.t0 B.t3 sky130_fd_pr__nfet_01v8 ad=6.8211 pd=35.76 as=2.88585 ps=17.82 w=17.49 l=1.36
R0 B.n820 B.n819 585
R1 B.n821 B.n820 585
R2 B.n358 B.n108 585
R3 B.n357 B.n356 585
R4 B.n355 B.n354 585
R5 B.n353 B.n352 585
R6 B.n351 B.n350 585
R7 B.n349 B.n348 585
R8 B.n347 B.n346 585
R9 B.n345 B.n344 585
R10 B.n343 B.n342 585
R11 B.n341 B.n340 585
R12 B.n339 B.n338 585
R13 B.n337 B.n336 585
R14 B.n335 B.n334 585
R15 B.n333 B.n332 585
R16 B.n331 B.n330 585
R17 B.n329 B.n328 585
R18 B.n327 B.n326 585
R19 B.n325 B.n324 585
R20 B.n323 B.n322 585
R21 B.n321 B.n320 585
R22 B.n319 B.n318 585
R23 B.n317 B.n316 585
R24 B.n315 B.n314 585
R25 B.n313 B.n312 585
R26 B.n311 B.n310 585
R27 B.n309 B.n308 585
R28 B.n307 B.n306 585
R29 B.n305 B.n304 585
R30 B.n303 B.n302 585
R31 B.n301 B.n300 585
R32 B.n299 B.n298 585
R33 B.n297 B.n296 585
R34 B.n295 B.n294 585
R35 B.n293 B.n292 585
R36 B.n291 B.n290 585
R37 B.n289 B.n288 585
R38 B.n287 B.n286 585
R39 B.n285 B.n284 585
R40 B.n283 B.n282 585
R41 B.n281 B.n280 585
R42 B.n279 B.n278 585
R43 B.n277 B.n276 585
R44 B.n275 B.n274 585
R45 B.n273 B.n272 585
R46 B.n271 B.n270 585
R47 B.n269 B.n268 585
R48 B.n267 B.n266 585
R49 B.n265 B.n264 585
R50 B.n263 B.n262 585
R51 B.n261 B.n260 585
R52 B.n259 B.n258 585
R53 B.n257 B.n256 585
R54 B.n255 B.n254 585
R55 B.n253 B.n252 585
R56 B.n251 B.n250 585
R57 B.n249 B.n248 585
R58 B.n247 B.n246 585
R59 B.n244 B.n243 585
R60 B.n242 B.n241 585
R61 B.n240 B.n239 585
R62 B.n238 B.n237 585
R63 B.n236 B.n235 585
R64 B.n234 B.n233 585
R65 B.n232 B.n231 585
R66 B.n230 B.n229 585
R67 B.n228 B.n227 585
R68 B.n226 B.n225 585
R69 B.n224 B.n223 585
R70 B.n222 B.n221 585
R71 B.n220 B.n219 585
R72 B.n218 B.n217 585
R73 B.n216 B.n215 585
R74 B.n214 B.n213 585
R75 B.n212 B.n211 585
R76 B.n210 B.n209 585
R77 B.n208 B.n207 585
R78 B.n206 B.n205 585
R79 B.n204 B.n203 585
R80 B.n202 B.n201 585
R81 B.n200 B.n199 585
R82 B.n198 B.n197 585
R83 B.n196 B.n195 585
R84 B.n194 B.n193 585
R85 B.n192 B.n191 585
R86 B.n190 B.n189 585
R87 B.n188 B.n187 585
R88 B.n186 B.n185 585
R89 B.n184 B.n183 585
R90 B.n182 B.n181 585
R91 B.n180 B.n179 585
R92 B.n178 B.n177 585
R93 B.n176 B.n175 585
R94 B.n174 B.n173 585
R95 B.n172 B.n171 585
R96 B.n170 B.n169 585
R97 B.n168 B.n167 585
R98 B.n166 B.n165 585
R99 B.n164 B.n163 585
R100 B.n162 B.n161 585
R101 B.n160 B.n159 585
R102 B.n158 B.n157 585
R103 B.n156 B.n155 585
R104 B.n154 B.n153 585
R105 B.n152 B.n151 585
R106 B.n150 B.n149 585
R107 B.n148 B.n147 585
R108 B.n146 B.n145 585
R109 B.n144 B.n143 585
R110 B.n142 B.n141 585
R111 B.n140 B.n139 585
R112 B.n138 B.n137 585
R113 B.n136 B.n135 585
R114 B.n134 B.n133 585
R115 B.n132 B.n131 585
R116 B.n130 B.n129 585
R117 B.n128 B.n127 585
R118 B.n126 B.n125 585
R119 B.n124 B.n123 585
R120 B.n122 B.n121 585
R121 B.n120 B.n119 585
R122 B.n118 B.n117 585
R123 B.n116 B.n115 585
R124 B.n46 B.n45 585
R125 B.n824 B.n823 585
R126 B.n818 B.n109 585
R127 B.n109 B.n43 585
R128 B.n817 B.n42 585
R129 B.n828 B.n42 585
R130 B.n816 B.n41 585
R131 B.n829 B.n41 585
R132 B.n815 B.n40 585
R133 B.n830 B.n40 585
R134 B.n814 B.n813 585
R135 B.n813 B.n36 585
R136 B.n812 B.n35 585
R137 B.n836 B.n35 585
R138 B.n811 B.n34 585
R139 B.n837 B.n34 585
R140 B.n810 B.n33 585
R141 B.n838 B.n33 585
R142 B.n809 B.n808 585
R143 B.n808 B.n29 585
R144 B.n807 B.n28 585
R145 B.n844 B.n28 585
R146 B.n806 B.n27 585
R147 B.n845 B.n27 585
R148 B.n805 B.n26 585
R149 B.n846 B.n26 585
R150 B.n804 B.n803 585
R151 B.n803 B.n22 585
R152 B.n802 B.n21 585
R153 B.n852 B.n21 585
R154 B.n801 B.n20 585
R155 B.n853 B.n20 585
R156 B.n800 B.n19 585
R157 B.n854 B.n19 585
R158 B.n799 B.n798 585
R159 B.n798 B.n15 585
R160 B.n797 B.n14 585
R161 B.n860 B.n14 585
R162 B.n796 B.n13 585
R163 B.n861 B.n13 585
R164 B.n795 B.n12 585
R165 B.n862 B.n12 585
R166 B.n794 B.n793 585
R167 B.n793 B.n8 585
R168 B.n792 B.n7 585
R169 B.n868 B.n7 585
R170 B.n791 B.n6 585
R171 B.n869 B.n6 585
R172 B.n790 B.n5 585
R173 B.n870 B.n5 585
R174 B.n789 B.n788 585
R175 B.n788 B.n4 585
R176 B.n787 B.n359 585
R177 B.n787 B.n786 585
R178 B.n777 B.n360 585
R179 B.n361 B.n360 585
R180 B.n779 B.n778 585
R181 B.n780 B.n779 585
R182 B.n776 B.n365 585
R183 B.n369 B.n365 585
R184 B.n775 B.n774 585
R185 B.n774 B.n773 585
R186 B.n367 B.n366 585
R187 B.n368 B.n367 585
R188 B.n766 B.n765 585
R189 B.n767 B.n766 585
R190 B.n764 B.n374 585
R191 B.n374 B.n373 585
R192 B.n763 B.n762 585
R193 B.n762 B.n761 585
R194 B.n376 B.n375 585
R195 B.n377 B.n376 585
R196 B.n754 B.n753 585
R197 B.n755 B.n754 585
R198 B.n752 B.n382 585
R199 B.n382 B.n381 585
R200 B.n751 B.n750 585
R201 B.n750 B.n749 585
R202 B.n384 B.n383 585
R203 B.n385 B.n384 585
R204 B.n742 B.n741 585
R205 B.n743 B.n742 585
R206 B.n740 B.n390 585
R207 B.n390 B.n389 585
R208 B.n739 B.n738 585
R209 B.n738 B.n737 585
R210 B.n392 B.n391 585
R211 B.n393 B.n392 585
R212 B.n730 B.n729 585
R213 B.n731 B.n730 585
R214 B.n728 B.n398 585
R215 B.n398 B.n397 585
R216 B.n727 B.n726 585
R217 B.n726 B.n725 585
R218 B.n400 B.n399 585
R219 B.n401 B.n400 585
R220 B.n721 B.n720 585
R221 B.n404 B.n403 585
R222 B.n717 B.n716 585
R223 B.n718 B.n717 585
R224 B.n715 B.n466 585
R225 B.n714 B.n713 585
R226 B.n712 B.n711 585
R227 B.n710 B.n709 585
R228 B.n708 B.n707 585
R229 B.n706 B.n705 585
R230 B.n704 B.n703 585
R231 B.n702 B.n701 585
R232 B.n700 B.n699 585
R233 B.n698 B.n697 585
R234 B.n696 B.n695 585
R235 B.n694 B.n693 585
R236 B.n692 B.n691 585
R237 B.n690 B.n689 585
R238 B.n688 B.n687 585
R239 B.n686 B.n685 585
R240 B.n684 B.n683 585
R241 B.n682 B.n681 585
R242 B.n680 B.n679 585
R243 B.n678 B.n677 585
R244 B.n676 B.n675 585
R245 B.n674 B.n673 585
R246 B.n672 B.n671 585
R247 B.n670 B.n669 585
R248 B.n668 B.n667 585
R249 B.n666 B.n665 585
R250 B.n664 B.n663 585
R251 B.n662 B.n661 585
R252 B.n660 B.n659 585
R253 B.n658 B.n657 585
R254 B.n656 B.n655 585
R255 B.n654 B.n653 585
R256 B.n652 B.n651 585
R257 B.n650 B.n649 585
R258 B.n648 B.n647 585
R259 B.n646 B.n645 585
R260 B.n644 B.n643 585
R261 B.n642 B.n641 585
R262 B.n640 B.n639 585
R263 B.n638 B.n637 585
R264 B.n636 B.n635 585
R265 B.n634 B.n633 585
R266 B.n632 B.n631 585
R267 B.n630 B.n629 585
R268 B.n628 B.n627 585
R269 B.n626 B.n625 585
R270 B.n624 B.n623 585
R271 B.n622 B.n621 585
R272 B.n620 B.n619 585
R273 B.n618 B.n617 585
R274 B.n616 B.n615 585
R275 B.n614 B.n613 585
R276 B.n612 B.n611 585
R277 B.n610 B.n609 585
R278 B.n608 B.n607 585
R279 B.n605 B.n604 585
R280 B.n603 B.n602 585
R281 B.n601 B.n600 585
R282 B.n599 B.n598 585
R283 B.n597 B.n596 585
R284 B.n595 B.n594 585
R285 B.n593 B.n592 585
R286 B.n591 B.n590 585
R287 B.n589 B.n588 585
R288 B.n587 B.n586 585
R289 B.n585 B.n584 585
R290 B.n583 B.n582 585
R291 B.n581 B.n580 585
R292 B.n579 B.n578 585
R293 B.n577 B.n576 585
R294 B.n575 B.n574 585
R295 B.n573 B.n572 585
R296 B.n571 B.n570 585
R297 B.n569 B.n568 585
R298 B.n567 B.n566 585
R299 B.n565 B.n564 585
R300 B.n563 B.n562 585
R301 B.n561 B.n560 585
R302 B.n559 B.n558 585
R303 B.n557 B.n556 585
R304 B.n555 B.n554 585
R305 B.n553 B.n552 585
R306 B.n551 B.n550 585
R307 B.n549 B.n548 585
R308 B.n547 B.n546 585
R309 B.n545 B.n544 585
R310 B.n543 B.n542 585
R311 B.n541 B.n540 585
R312 B.n539 B.n538 585
R313 B.n537 B.n536 585
R314 B.n535 B.n534 585
R315 B.n533 B.n532 585
R316 B.n531 B.n530 585
R317 B.n529 B.n528 585
R318 B.n527 B.n526 585
R319 B.n525 B.n524 585
R320 B.n523 B.n522 585
R321 B.n521 B.n520 585
R322 B.n519 B.n518 585
R323 B.n517 B.n516 585
R324 B.n515 B.n514 585
R325 B.n513 B.n512 585
R326 B.n511 B.n510 585
R327 B.n509 B.n508 585
R328 B.n507 B.n506 585
R329 B.n505 B.n504 585
R330 B.n503 B.n502 585
R331 B.n501 B.n500 585
R332 B.n499 B.n498 585
R333 B.n497 B.n496 585
R334 B.n495 B.n494 585
R335 B.n493 B.n492 585
R336 B.n491 B.n490 585
R337 B.n489 B.n488 585
R338 B.n487 B.n486 585
R339 B.n485 B.n484 585
R340 B.n483 B.n482 585
R341 B.n481 B.n480 585
R342 B.n479 B.n478 585
R343 B.n477 B.n476 585
R344 B.n475 B.n474 585
R345 B.n473 B.n472 585
R346 B.n722 B.n402 585
R347 B.n402 B.n401 585
R348 B.n724 B.n723 585
R349 B.n725 B.n724 585
R350 B.n396 B.n395 585
R351 B.n397 B.n396 585
R352 B.n733 B.n732 585
R353 B.n732 B.n731 585
R354 B.n734 B.n394 585
R355 B.n394 B.n393 585
R356 B.n736 B.n735 585
R357 B.n737 B.n736 585
R358 B.n388 B.n387 585
R359 B.n389 B.n388 585
R360 B.n745 B.n744 585
R361 B.n744 B.n743 585
R362 B.n746 B.n386 585
R363 B.n386 B.n385 585
R364 B.n748 B.n747 585
R365 B.n749 B.n748 585
R366 B.n380 B.n379 585
R367 B.n381 B.n380 585
R368 B.n757 B.n756 585
R369 B.n756 B.n755 585
R370 B.n758 B.n378 585
R371 B.n378 B.n377 585
R372 B.n760 B.n759 585
R373 B.n761 B.n760 585
R374 B.n372 B.n371 585
R375 B.n373 B.n372 585
R376 B.n769 B.n768 585
R377 B.n768 B.n767 585
R378 B.n770 B.n370 585
R379 B.n370 B.n368 585
R380 B.n772 B.n771 585
R381 B.n773 B.n772 585
R382 B.n364 B.n363 585
R383 B.n369 B.n364 585
R384 B.n782 B.n781 585
R385 B.n781 B.n780 585
R386 B.n783 B.n362 585
R387 B.n362 B.n361 585
R388 B.n785 B.n784 585
R389 B.n786 B.n785 585
R390 B.n2 B.n0 585
R391 B.n4 B.n2 585
R392 B.n3 B.n1 585
R393 B.n869 B.n3 585
R394 B.n867 B.n866 585
R395 B.n868 B.n867 585
R396 B.n865 B.n9 585
R397 B.n9 B.n8 585
R398 B.n864 B.n863 585
R399 B.n863 B.n862 585
R400 B.n11 B.n10 585
R401 B.n861 B.n11 585
R402 B.n859 B.n858 585
R403 B.n860 B.n859 585
R404 B.n857 B.n16 585
R405 B.n16 B.n15 585
R406 B.n856 B.n855 585
R407 B.n855 B.n854 585
R408 B.n18 B.n17 585
R409 B.n853 B.n18 585
R410 B.n851 B.n850 585
R411 B.n852 B.n851 585
R412 B.n849 B.n23 585
R413 B.n23 B.n22 585
R414 B.n848 B.n847 585
R415 B.n847 B.n846 585
R416 B.n25 B.n24 585
R417 B.n845 B.n25 585
R418 B.n843 B.n842 585
R419 B.n844 B.n843 585
R420 B.n841 B.n30 585
R421 B.n30 B.n29 585
R422 B.n840 B.n839 585
R423 B.n839 B.n838 585
R424 B.n32 B.n31 585
R425 B.n837 B.n32 585
R426 B.n835 B.n834 585
R427 B.n836 B.n835 585
R428 B.n833 B.n37 585
R429 B.n37 B.n36 585
R430 B.n832 B.n831 585
R431 B.n831 B.n830 585
R432 B.n39 B.n38 585
R433 B.n829 B.n39 585
R434 B.n827 B.n826 585
R435 B.n828 B.n827 585
R436 B.n825 B.n44 585
R437 B.n44 B.n43 585
R438 B.n872 B.n871 585
R439 B.n871 B.n870 585
R440 B.n469 B.t12 514.811
R441 B.n467 B.t4 514.811
R442 B.n112 B.t8 514.811
R443 B.n110 B.t15 514.811
R444 B.n720 B.n402 511.721
R445 B.n823 B.n44 511.721
R446 B.n472 B.n400 511.721
R447 B.n820 B.n109 511.721
R448 B.n469 B.t14 409.452
R449 B.n110 B.t16 409.452
R450 B.n467 B.t7 409.452
R451 B.n112 B.t10 409.452
R452 B.n470 B.t13 376.678
R453 B.n111 B.t17 376.678
R454 B.n468 B.t6 376.678
R455 B.n113 B.t11 376.678
R456 B.n821 B.n107 256.663
R457 B.n821 B.n106 256.663
R458 B.n821 B.n105 256.663
R459 B.n821 B.n104 256.663
R460 B.n821 B.n103 256.663
R461 B.n821 B.n102 256.663
R462 B.n821 B.n101 256.663
R463 B.n821 B.n100 256.663
R464 B.n821 B.n99 256.663
R465 B.n821 B.n98 256.663
R466 B.n821 B.n97 256.663
R467 B.n821 B.n96 256.663
R468 B.n821 B.n95 256.663
R469 B.n821 B.n94 256.663
R470 B.n821 B.n93 256.663
R471 B.n821 B.n92 256.663
R472 B.n821 B.n91 256.663
R473 B.n821 B.n90 256.663
R474 B.n821 B.n89 256.663
R475 B.n821 B.n88 256.663
R476 B.n821 B.n87 256.663
R477 B.n821 B.n86 256.663
R478 B.n821 B.n85 256.663
R479 B.n821 B.n84 256.663
R480 B.n821 B.n83 256.663
R481 B.n821 B.n82 256.663
R482 B.n821 B.n81 256.663
R483 B.n821 B.n80 256.663
R484 B.n821 B.n79 256.663
R485 B.n821 B.n78 256.663
R486 B.n821 B.n77 256.663
R487 B.n821 B.n76 256.663
R488 B.n821 B.n75 256.663
R489 B.n821 B.n74 256.663
R490 B.n821 B.n73 256.663
R491 B.n821 B.n72 256.663
R492 B.n821 B.n71 256.663
R493 B.n821 B.n70 256.663
R494 B.n821 B.n69 256.663
R495 B.n821 B.n68 256.663
R496 B.n821 B.n67 256.663
R497 B.n821 B.n66 256.663
R498 B.n821 B.n65 256.663
R499 B.n821 B.n64 256.663
R500 B.n821 B.n63 256.663
R501 B.n821 B.n62 256.663
R502 B.n821 B.n61 256.663
R503 B.n821 B.n60 256.663
R504 B.n821 B.n59 256.663
R505 B.n821 B.n58 256.663
R506 B.n821 B.n57 256.663
R507 B.n821 B.n56 256.663
R508 B.n821 B.n55 256.663
R509 B.n821 B.n54 256.663
R510 B.n821 B.n53 256.663
R511 B.n821 B.n52 256.663
R512 B.n821 B.n51 256.663
R513 B.n821 B.n50 256.663
R514 B.n821 B.n49 256.663
R515 B.n821 B.n48 256.663
R516 B.n821 B.n47 256.663
R517 B.n822 B.n821 256.663
R518 B.n719 B.n718 256.663
R519 B.n718 B.n405 256.663
R520 B.n718 B.n406 256.663
R521 B.n718 B.n407 256.663
R522 B.n718 B.n408 256.663
R523 B.n718 B.n409 256.663
R524 B.n718 B.n410 256.663
R525 B.n718 B.n411 256.663
R526 B.n718 B.n412 256.663
R527 B.n718 B.n413 256.663
R528 B.n718 B.n414 256.663
R529 B.n718 B.n415 256.663
R530 B.n718 B.n416 256.663
R531 B.n718 B.n417 256.663
R532 B.n718 B.n418 256.663
R533 B.n718 B.n419 256.663
R534 B.n718 B.n420 256.663
R535 B.n718 B.n421 256.663
R536 B.n718 B.n422 256.663
R537 B.n718 B.n423 256.663
R538 B.n718 B.n424 256.663
R539 B.n718 B.n425 256.663
R540 B.n718 B.n426 256.663
R541 B.n718 B.n427 256.663
R542 B.n718 B.n428 256.663
R543 B.n718 B.n429 256.663
R544 B.n718 B.n430 256.663
R545 B.n718 B.n431 256.663
R546 B.n718 B.n432 256.663
R547 B.n718 B.n433 256.663
R548 B.n718 B.n434 256.663
R549 B.n718 B.n435 256.663
R550 B.n718 B.n436 256.663
R551 B.n718 B.n437 256.663
R552 B.n718 B.n438 256.663
R553 B.n718 B.n439 256.663
R554 B.n718 B.n440 256.663
R555 B.n718 B.n441 256.663
R556 B.n718 B.n442 256.663
R557 B.n718 B.n443 256.663
R558 B.n718 B.n444 256.663
R559 B.n718 B.n445 256.663
R560 B.n718 B.n446 256.663
R561 B.n718 B.n447 256.663
R562 B.n718 B.n448 256.663
R563 B.n718 B.n449 256.663
R564 B.n718 B.n450 256.663
R565 B.n718 B.n451 256.663
R566 B.n718 B.n452 256.663
R567 B.n718 B.n453 256.663
R568 B.n718 B.n454 256.663
R569 B.n718 B.n455 256.663
R570 B.n718 B.n456 256.663
R571 B.n718 B.n457 256.663
R572 B.n718 B.n458 256.663
R573 B.n718 B.n459 256.663
R574 B.n718 B.n460 256.663
R575 B.n718 B.n461 256.663
R576 B.n718 B.n462 256.663
R577 B.n718 B.n463 256.663
R578 B.n718 B.n464 256.663
R579 B.n718 B.n465 256.663
R580 B.n724 B.n402 163.367
R581 B.n724 B.n396 163.367
R582 B.n732 B.n396 163.367
R583 B.n732 B.n394 163.367
R584 B.n736 B.n394 163.367
R585 B.n736 B.n388 163.367
R586 B.n744 B.n388 163.367
R587 B.n744 B.n386 163.367
R588 B.n748 B.n386 163.367
R589 B.n748 B.n380 163.367
R590 B.n756 B.n380 163.367
R591 B.n756 B.n378 163.367
R592 B.n760 B.n378 163.367
R593 B.n760 B.n372 163.367
R594 B.n768 B.n372 163.367
R595 B.n768 B.n370 163.367
R596 B.n772 B.n370 163.367
R597 B.n772 B.n364 163.367
R598 B.n781 B.n364 163.367
R599 B.n781 B.n362 163.367
R600 B.n785 B.n362 163.367
R601 B.n785 B.n2 163.367
R602 B.n871 B.n2 163.367
R603 B.n871 B.n3 163.367
R604 B.n867 B.n3 163.367
R605 B.n867 B.n9 163.367
R606 B.n863 B.n9 163.367
R607 B.n863 B.n11 163.367
R608 B.n859 B.n11 163.367
R609 B.n859 B.n16 163.367
R610 B.n855 B.n16 163.367
R611 B.n855 B.n18 163.367
R612 B.n851 B.n18 163.367
R613 B.n851 B.n23 163.367
R614 B.n847 B.n23 163.367
R615 B.n847 B.n25 163.367
R616 B.n843 B.n25 163.367
R617 B.n843 B.n30 163.367
R618 B.n839 B.n30 163.367
R619 B.n839 B.n32 163.367
R620 B.n835 B.n32 163.367
R621 B.n835 B.n37 163.367
R622 B.n831 B.n37 163.367
R623 B.n831 B.n39 163.367
R624 B.n827 B.n39 163.367
R625 B.n827 B.n44 163.367
R626 B.n717 B.n404 163.367
R627 B.n717 B.n466 163.367
R628 B.n713 B.n712 163.367
R629 B.n709 B.n708 163.367
R630 B.n705 B.n704 163.367
R631 B.n701 B.n700 163.367
R632 B.n697 B.n696 163.367
R633 B.n693 B.n692 163.367
R634 B.n689 B.n688 163.367
R635 B.n685 B.n684 163.367
R636 B.n681 B.n680 163.367
R637 B.n677 B.n676 163.367
R638 B.n673 B.n672 163.367
R639 B.n669 B.n668 163.367
R640 B.n665 B.n664 163.367
R641 B.n661 B.n660 163.367
R642 B.n657 B.n656 163.367
R643 B.n653 B.n652 163.367
R644 B.n649 B.n648 163.367
R645 B.n645 B.n644 163.367
R646 B.n641 B.n640 163.367
R647 B.n637 B.n636 163.367
R648 B.n633 B.n632 163.367
R649 B.n629 B.n628 163.367
R650 B.n625 B.n624 163.367
R651 B.n621 B.n620 163.367
R652 B.n617 B.n616 163.367
R653 B.n613 B.n612 163.367
R654 B.n609 B.n608 163.367
R655 B.n604 B.n603 163.367
R656 B.n600 B.n599 163.367
R657 B.n596 B.n595 163.367
R658 B.n592 B.n591 163.367
R659 B.n588 B.n587 163.367
R660 B.n584 B.n583 163.367
R661 B.n580 B.n579 163.367
R662 B.n576 B.n575 163.367
R663 B.n572 B.n571 163.367
R664 B.n568 B.n567 163.367
R665 B.n564 B.n563 163.367
R666 B.n560 B.n559 163.367
R667 B.n556 B.n555 163.367
R668 B.n552 B.n551 163.367
R669 B.n548 B.n547 163.367
R670 B.n544 B.n543 163.367
R671 B.n540 B.n539 163.367
R672 B.n536 B.n535 163.367
R673 B.n532 B.n531 163.367
R674 B.n528 B.n527 163.367
R675 B.n524 B.n523 163.367
R676 B.n520 B.n519 163.367
R677 B.n516 B.n515 163.367
R678 B.n512 B.n511 163.367
R679 B.n508 B.n507 163.367
R680 B.n504 B.n503 163.367
R681 B.n500 B.n499 163.367
R682 B.n496 B.n495 163.367
R683 B.n492 B.n491 163.367
R684 B.n488 B.n487 163.367
R685 B.n484 B.n483 163.367
R686 B.n480 B.n479 163.367
R687 B.n476 B.n475 163.367
R688 B.n726 B.n400 163.367
R689 B.n726 B.n398 163.367
R690 B.n730 B.n398 163.367
R691 B.n730 B.n392 163.367
R692 B.n738 B.n392 163.367
R693 B.n738 B.n390 163.367
R694 B.n742 B.n390 163.367
R695 B.n742 B.n384 163.367
R696 B.n750 B.n384 163.367
R697 B.n750 B.n382 163.367
R698 B.n754 B.n382 163.367
R699 B.n754 B.n376 163.367
R700 B.n762 B.n376 163.367
R701 B.n762 B.n374 163.367
R702 B.n766 B.n374 163.367
R703 B.n766 B.n367 163.367
R704 B.n774 B.n367 163.367
R705 B.n774 B.n365 163.367
R706 B.n779 B.n365 163.367
R707 B.n779 B.n360 163.367
R708 B.n787 B.n360 163.367
R709 B.n788 B.n787 163.367
R710 B.n788 B.n5 163.367
R711 B.n6 B.n5 163.367
R712 B.n7 B.n6 163.367
R713 B.n793 B.n7 163.367
R714 B.n793 B.n12 163.367
R715 B.n13 B.n12 163.367
R716 B.n14 B.n13 163.367
R717 B.n798 B.n14 163.367
R718 B.n798 B.n19 163.367
R719 B.n20 B.n19 163.367
R720 B.n21 B.n20 163.367
R721 B.n803 B.n21 163.367
R722 B.n803 B.n26 163.367
R723 B.n27 B.n26 163.367
R724 B.n28 B.n27 163.367
R725 B.n808 B.n28 163.367
R726 B.n808 B.n33 163.367
R727 B.n34 B.n33 163.367
R728 B.n35 B.n34 163.367
R729 B.n813 B.n35 163.367
R730 B.n813 B.n40 163.367
R731 B.n41 B.n40 163.367
R732 B.n42 B.n41 163.367
R733 B.n109 B.n42 163.367
R734 B.n115 B.n46 163.367
R735 B.n119 B.n118 163.367
R736 B.n123 B.n122 163.367
R737 B.n127 B.n126 163.367
R738 B.n131 B.n130 163.367
R739 B.n135 B.n134 163.367
R740 B.n139 B.n138 163.367
R741 B.n143 B.n142 163.367
R742 B.n147 B.n146 163.367
R743 B.n151 B.n150 163.367
R744 B.n155 B.n154 163.367
R745 B.n159 B.n158 163.367
R746 B.n163 B.n162 163.367
R747 B.n167 B.n166 163.367
R748 B.n171 B.n170 163.367
R749 B.n175 B.n174 163.367
R750 B.n179 B.n178 163.367
R751 B.n183 B.n182 163.367
R752 B.n187 B.n186 163.367
R753 B.n191 B.n190 163.367
R754 B.n195 B.n194 163.367
R755 B.n199 B.n198 163.367
R756 B.n203 B.n202 163.367
R757 B.n207 B.n206 163.367
R758 B.n211 B.n210 163.367
R759 B.n215 B.n214 163.367
R760 B.n219 B.n218 163.367
R761 B.n223 B.n222 163.367
R762 B.n227 B.n226 163.367
R763 B.n231 B.n230 163.367
R764 B.n235 B.n234 163.367
R765 B.n239 B.n238 163.367
R766 B.n243 B.n242 163.367
R767 B.n248 B.n247 163.367
R768 B.n252 B.n251 163.367
R769 B.n256 B.n255 163.367
R770 B.n260 B.n259 163.367
R771 B.n264 B.n263 163.367
R772 B.n268 B.n267 163.367
R773 B.n272 B.n271 163.367
R774 B.n276 B.n275 163.367
R775 B.n280 B.n279 163.367
R776 B.n284 B.n283 163.367
R777 B.n288 B.n287 163.367
R778 B.n292 B.n291 163.367
R779 B.n296 B.n295 163.367
R780 B.n300 B.n299 163.367
R781 B.n304 B.n303 163.367
R782 B.n308 B.n307 163.367
R783 B.n312 B.n311 163.367
R784 B.n316 B.n315 163.367
R785 B.n320 B.n319 163.367
R786 B.n324 B.n323 163.367
R787 B.n328 B.n327 163.367
R788 B.n332 B.n331 163.367
R789 B.n336 B.n335 163.367
R790 B.n340 B.n339 163.367
R791 B.n344 B.n343 163.367
R792 B.n348 B.n347 163.367
R793 B.n352 B.n351 163.367
R794 B.n356 B.n355 163.367
R795 B.n820 B.n108 163.367
R796 B.n720 B.n719 71.676
R797 B.n466 B.n405 71.676
R798 B.n712 B.n406 71.676
R799 B.n708 B.n407 71.676
R800 B.n704 B.n408 71.676
R801 B.n700 B.n409 71.676
R802 B.n696 B.n410 71.676
R803 B.n692 B.n411 71.676
R804 B.n688 B.n412 71.676
R805 B.n684 B.n413 71.676
R806 B.n680 B.n414 71.676
R807 B.n676 B.n415 71.676
R808 B.n672 B.n416 71.676
R809 B.n668 B.n417 71.676
R810 B.n664 B.n418 71.676
R811 B.n660 B.n419 71.676
R812 B.n656 B.n420 71.676
R813 B.n652 B.n421 71.676
R814 B.n648 B.n422 71.676
R815 B.n644 B.n423 71.676
R816 B.n640 B.n424 71.676
R817 B.n636 B.n425 71.676
R818 B.n632 B.n426 71.676
R819 B.n628 B.n427 71.676
R820 B.n624 B.n428 71.676
R821 B.n620 B.n429 71.676
R822 B.n616 B.n430 71.676
R823 B.n612 B.n431 71.676
R824 B.n608 B.n432 71.676
R825 B.n603 B.n433 71.676
R826 B.n599 B.n434 71.676
R827 B.n595 B.n435 71.676
R828 B.n591 B.n436 71.676
R829 B.n587 B.n437 71.676
R830 B.n583 B.n438 71.676
R831 B.n579 B.n439 71.676
R832 B.n575 B.n440 71.676
R833 B.n571 B.n441 71.676
R834 B.n567 B.n442 71.676
R835 B.n563 B.n443 71.676
R836 B.n559 B.n444 71.676
R837 B.n555 B.n445 71.676
R838 B.n551 B.n446 71.676
R839 B.n547 B.n447 71.676
R840 B.n543 B.n448 71.676
R841 B.n539 B.n449 71.676
R842 B.n535 B.n450 71.676
R843 B.n531 B.n451 71.676
R844 B.n527 B.n452 71.676
R845 B.n523 B.n453 71.676
R846 B.n519 B.n454 71.676
R847 B.n515 B.n455 71.676
R848 B.n511 B.n456 71.676
R849 B.n507 B.n457 71.676
R850 B.n503 B.n458 71.676
R851 B.n499 B.n459 71.676
R852 B.n495 B.n460 71.676
R853 B.n491 B.n461 71.676
R854 B.n487 B.n462 71.676
R855 B.n483 B.n463 71.676
R856 B.n479 B.n464 71.676
R857 B.n475 B.n465 71.676
R858 B.n823 B.n822 71.676
R859 B.n115 B.n47 71.676
R860 B.n119 B.n48 71.676
R861 B.n123 B.n49 71.676
R862 B.n127 B.n50 71.676
R863 B.n131 B.n51 71.676
R864 B.n135 B.n52 71.676
R865 B.n139 B.n53 71.676
R866 B.n143 B.n54 71.676
R867 B.n147 B.n55 71.676
R868 B.n151 B.n56 71.676
R869 B.n155 B.n57 71.676
R870 B.n159 B.n58 71.676
R871 B.n163 B.n59 71.676
R872 B.n167 B.n60 71.676
R873 B.n171 B.n61 71.676
R874 B.n175 B.n62 71.676
R875 B.n179 B.n63 71.676
R876 B.n183 B.n64 71.676
R877 B.n187 B.n65 71.676
R878 B.n191 B.n66 71.676
R879 B.n195 B.n67 71.676
R880 B.n199 B.n68 71.676
R881 B.n203 B.n69 71.676
R882 B.n207 B.n70 71.676
R883 B.n211 B.n71 71.676
R884 B.n215 B.n72 71.676
R885 B.n219 B.n73 71.676
R886 B.n223 B.n74 71.676
R887 B.n227 B.n75 71.676
R888 B.n231 B.n76 71.676
R889 B.n235 B.n77 71.676
R890 B.n239 B.n78 71.676
R891 B.n243 B.n79 71.676
R892 B.n248 B.n80 71.676
R893 B.n252 B.n81 71.676
R894 B.n256 B.n82 71.676
R895 B.n260 B.n83 71.676
R896 B.n264 B.n84 71.676
R897 B.n268 B.n85 71.676
R898 B.n272 B.n86 71.676
R899 B.n276 B.n87 71.676
R900 B.n280 B.n88 71.676
R901 B.n284 B.n89 71.676
R902 B.n288 B.n90 71.676
R903 B.n292 B.n91 71.676
R904 B.n296 B.n92 71.676
R905 B.n300 B.n93 71.676
R906 B.n304 B.n94 71.676
R907 B.n308 B.n95 71.676
R908 B.n312 B.n96 71.676
R909 B.n316 B.n97 71.676
R910 B.n320 B.n98 71.676
R911 B.n324 B.n99 71.676
R912 B.n328 B.n100 71.676
R913 B.n332 B.n101 71.676
R914 B.n336 B.n102 71.676
R915 B.n340 B.n103 71.676
R916 B.n344 B.n104 71.676
R917 B.n348 B.n105 71.676
R918 B.n352 B.n106 71.676
R919 B.n356 B.n107 71.676
R920 B.n108 B.n107 71.676
R921 B.n355 B.n106 71.676
R922 B.n351 B.n105 71.676
R923 B.n347 B.n104 71.676
R924 B.n343 B.n103 71.676
R925 B.n339 B.n102 71.676
R926 B.n335 B.n101 71.676
R927 B.n331 B.n100 71.676
R928 B.n327 B.n99 71.676
R929 B.n323 B.n98 71.676
R930 B.n319 B.n97 71.676
R931 B.n315 B.n96 71.676
R932 B.n311 B.n95 71.676
R933 B.n307 B.n94 71.676
R934 B.n303 B.n93 71.676
R935 B.n299 B.n92 71.676
R936 B.n295 B.n91 71.676
R937 B.n291 B.n90 71.676
R938 B.n287 B.n89 71.676
R939 B.n283 B.n88 71.676
R940 B.n279 B.n87 71.676
R941 B.n275 B.n86 71.676
R942 B.n271 B.n85 71.676
R943 B.n267 B.n84 71.676
R944 B.n263 B.n83 71.676
R945 B.n259 B.n82 71.676
R946 B.n255 B.n81 71.676
R947 B.n251 B.n80 71.676
R948 B.n247 B.n79 71.676
R949 B.n242 B.n78 71.676
R950 B.n238 B.n77 71.676
R951 B.n234 B.n76 71.676
R952 B.n230 B.n75 71.676
R953 B.n226 B.n74 71.676
R954 B.n222 B.n73 71.676
R955 B.n218 B.n72 71.676
R956 B.n214 B.n71 71.676
R957 B.n210 B.n70 71.676
R958 B.n206 B.n69 71.676
R959 B.n202 B.n68 71.676
R960 B.n198 B.n67 71.676
R961 B.n194 B.n66 71.676
R962 B.n190 B.n65 71.676
R963 B.n186 B.n64 71.676
R964 B.n182 B.n63 71.676
R965 B.n178 B.n62 71.676
R966 B.n174 B.n61 71.676
R967 B.n170 B.n60 71.676
R968 B.n166 B.n59 71.676
R969 B.n162 B.n58 71.676
R970 B.n158 B.n57 71.676
R971 B.n154 B.n56 71.676
R972 B.n150 B.n55 71.676
R973 B.n146 B.n54 71.676
R974 B.n142 B.n53 71.676
R975 B.n138 B.n52 71.676
R976 B.n134 B.n51 71.676
R977 B.n130 B.n50 71.676
R978 B.n126 B.n49 71.676
R979 B.n122 B.n48 71.676
R980 B.n118 B.n47 71.676
R981 B.n822 B.n46 71.676
R982 B.n719 B.n404 71.676
R983 B.n713 B.n405 71.676
R984 B.n709 B.n406 71.676
R985 B.n705 B.n407 71.676
R986 B.n701 B.n408 71.676
R987 B.n697 B.n409 71.676
R988 B.n693 B.n410 71.676
R989 B.n689 B.n411 71.676
R990 B.n685 B.n412 71.676
R991 B.n681 B.n413 71.676
R992 B.n677 B.n414 71.676
R993 B.n673 B.n415 71.676
R994 B.n669 B.n416 71.676
R995 B.n665 B.n417 71.676
R996 B.n661 B.n418 71.676
R997 B.n657 B.n419 71.676
R998 B.n653 B.n420 71.676
R999 B.n649 B.n421 71.676
R1000 B.n645 B.n422 71.676
R1001 B.n641 B.n423 71.676
R1002 B.n637 B.n424 71.676
R1003 B.n633 B.n425 71.676
R1004 B.n629 B.n426 71.676
R1005 B.n625 B.n427 71.676
R1006 B.n621 B.n428 71.676
R1007 B.n617 B.n429 71.676
R1008 B.n613 B.n430 71.676
R1009 B.n609 B.n431 71.676
R1010 B.n604 B.n432 71.676
R1011 B.n600 B.n433 71.676
R1012 B.n596 B.n434 71.676
R1013 B.n592 B.n435 71.676
R1014 B.n588 B.n436 71.676
R1015 B.n584 B.n437 71.676
R1016 B.n580 B.n438 71.676
R1017 B.n576 B.n439 71.676
R1018 B.n572 B.n440 71.676
R1019 B.n568 B.n441 71.676
R1020 B.n564 B.n442 71.676
R1021 B.n560 B.n443 71.676
R1022 B.n556 B.n444 71.676
R1023 B.n552 B.n445 71.676
R1024 B.n548 B.n446 71.676
R1025 B.n544 B.n447 71.676
R1026 B.n540 B.n448 71.676
R1027 B.n536 B.n449 71.676
R1028 B.n532 B.n450 71.676
R1029 B.n528 B.n451 71.676
R1030 B.n524 B.n452 71.676
R1031 B.n520 B.n453 71.676
R1032 B.n516 B.n454 71.676
R1033 B.n512 B.n455 71.676
R1034 B.n508 B.n456 71.676
R1035 B.n504 B.n457 71.676
R1036 B.n500 B.n458 71.676
R1037 B.n496 B.n459 71.676
R1038 B.n492 B.n460 71.676
R1039 B.n488 B.n461 71.676
R1040 B.n484 B.n462 71.676
R1041 B.n480 B.n463 71.676
R1042 B.n476 B.n464 71.676
R1043 B.n472 B.n465 71.676
R1044 B.n718 B.n401 60.4002
R1045 B.n821 B.n43 60.4002
R1046 B.n471 B.n470 59.5399
R1047 B.n606 B.n468 59.5399
R1048 B.n114 B.n113 59.5399
R1049 B.n245 B.n111 59.5399
R1050 B.n825 B.n824 33.2493
R1051 B.n819 B.n818 33.2493
R1052 B.n473 B.n399 33.2493
R1053 B.n722 B.n721 33.2493
R1054 B.n725 B.n401 32.858
R1055 B.n725 B.n397 32.858
R1056 B.n731 B.n397 32.858
R1057 B.n731 B.n393 32.858
R1058 B.n737 B.n393 32.858
R1059 B.n743 B.n389 32.858
R1060 B.n743 B.n385 32.858
R1061 B.n749 B.n385 32.858
R1062 B.n749 B.n381 32.858
R1063 B.n755 B.n381 32.858
R1064 B.n755 B.n377 32.858
R1065 B.n761 B.n377 32.858
R1066 B.n767 B.n373 32.858
R1067 B.n767 B.n368 32.858
R1068 B.n773 B.n368 32.858
R1069 B.n773 B.n369 32.858
R1070 B.n780 B.n361 32.858
R1071 B.n786 B.n361 32.858
R1072 B.n786 B.n4 32.858
R1073 B.n870 B.n4 32.858
R1074 B.n870 B.n869 32.858
R1075 B.n869 B.n868 32.858
R1076 B.n868 B.n8 32.858
R1077 B.n862 B.n8 32.858
R1078 B.n861 B.n860 32.858
R1079 B.n860 B.n15 32.858
R1080 B.n854 B.n15 32.858
R1081 B.n854 B.n853 32.858
R1082 B.n852 B.n22 32.858
R1083 B.n846 B.n22 32.858
R1084 B.n846 B.n845 32.858
R1085 B.n845 B.n844 32.858
R1086 B.n844 B.n29 32.858
R1087 B.n838 B.n29 32.858
R1088 B.n838 B.n837 32.858
R1089 B.n836 B.n36 32.858
R1090 B.n830 B.n36 32.858
R1091 B.n830 B.n829 32.858
R1092 B.n829 B.n828 32.858
R1093 B.n828 B.n43 32.858
R1094 B.n470 B.n469 32.7763
R1095 B.n468 B.n467 32.7763
R1096 B.n113 B.n112 32.7763
R1097 B.n111 B.n110 32.7763
R1098 B.n761 B.t1 30.9252
R1099 B.t2 B.n852 30.9252
R1100 B.n369 B.t0 29.9588
R1101 B.t3 B.n861 29.9588
R1102 B.n737 B.t5 25.1268
R1103 B.t9 B.n836 25.1268
R1104 B B.n872 18.0485
R1105 B.n824 B.n45 10.6151
R1106 B.n116 B.n45 10.6151
R1107 B.n117 B.n116 10.6151
R1108 B.n120 B.n117 10.6151
R1109 B.n121 B.n120 10.6151
R1110 B.n124 B.n121 10.6151
R1111 B.n125 B.n124 10.6151
R1112 B.n128 B.n125 10.6151
R1113 B.n129 B.n128 10.6151
R1114 B.n132 B.n129 10.6151
R1115 B.n133 B.n132 10.6151
R1116 B.n136 B.n133 10.6151
R1117 B.n137 B.n136 10.6151
R1118 B.n140 B.n137 10.6151
R1119 B.n141 B.n140 10.6151
R1120 B.n144 B.n141 10.6151
R1121 B.n145 B.n144 10.6151
R1122 B.n148 B.n145 10.6151
R1123 B.n149 B.n148 10.6151
R1124 B.n152 B.n149 10.6151
R1125 B.n153 B.n152 10.6151
R1126 B.n156 B.n153 10.6151
R1127 B.n157 B.n156 10.6151
R1128 B.n160 B.n157 10.6151
R1129 B.n161 B.n160 10.6151
R1130 B.n164 B.n161 10.6151
R1131 B.n165 B.n164 10.6151
R1132 B.n168 B.n165 10.6151
R1133 B.n169 B.n168 10.6151
R1134 B.n172 B.n169 10.6151
R1135 B.n173 B.n172 10.6151
R1136 B.n176 B.n173 10.6151
R1137 B.n177 B.n176 10.6151
R1138 B.n180 B.n177 10.6151
R1139 B.n181 B.n180 10.6151
R1140 B.n184 B.n181 10.6151
R1141 B.n185 B.n184 10.6151
R1142 B.n188 B.n185 10.6151
R1143 B.n189 B.n188 10.6151
R1144 B.n192 B.n189 10.6151
R1145 B.n193 B.n192 10.6151
R1146 B.n196 B.n193 10.6151
R1147 B.n197 B.n196 10.6151
R1148 B.n200 B.n197 10.6151