* NGSPICE file created from diff_pair_sample_1257.ext - technology: sky130A

.subckt diff_pair_sample_1257 VTAIL VN VP B VDD2 VDD1
X0 VDD1.t9 VP.t0 VTAIL.t14 B.t0 sky130_fd_pr__nfet_01v8 ad=1.8645 pd=11.63 as=4.407 ps=23.38 w=11.3 l=0.35
X1 VTAIL.t13 VP.t1 VDD1.t8 B.t2 sky130_fd_pr__nfet_01v8 ad=1.8645 pd=11.63 as=1.8645 ps=11.63 w=11.3 l=0.35
X2 VDD1.t7 VP.t2 VTAIL.t12 B.t23 sky130_fd_pr__nfet_01v8 ad=1.8645 pd=11.63 as=1.8645 ps=11.63 w=11.3 l=0.35
X3 B.t20 B.t18 B.t19 B.t12 sky130_fd_pr__nfet_01v8 ad=4.407 pd=23.38 as=0 ps=0 w=11.3 l=0.35
X4 VDD2.t9 VN.t0 VTAIL.t6 B.t6 sky130_fd_pr__nfet_01v8 ad=4.407 pd=23.38 as=1.8645 ps=11.63 w=11.3 l=0.35
X5 VDD1.t6 VP.t3 VTAIL.t11 B.t3 sky130_fd_pr__nfet_01v8 ad=1.8645 pd=11.63 as=4.407 ps=23.38 w=11.3 l=0.35
X6 VTAIL.t9 VP.t4 VDD1.t5 B.t5 sky130_fd_pr__nfet_01v8 ad=1.8645 pd=11.63 as=1.8645 ps=11.63 w=11.3 l=0.35
X7 VTAIL.t2 VN.t1 VDD2.t8 B.t2 sky130_fd_pr__nfet_01v8 ad=1.8645 pd=11.63 as=1.8645 ps=11.63 w=11.3 l=0.35
X8 VDD2.t7 VN.t2 VTAIL.t3 B.t3 sky130_fd_pr__nfet_01v8 ad=1.8645 pd=11.63 as=4.407 ps=23.38 w=11.3 l=0.35
X9 VTAIL.t4 VN.t3 VDD2.t6 B.t4 sky130_fd_pr__nfet_01v8 ad=1.8645 pd=11.63 as=1.8645 ps=11.63 w=11.3 l=0.35
X10 B.t17 B.t15 B.t16 B.t8 sky130_fd_pr__nfet_01v8 ad=4.407 pd=23.38 as=0 ps=0 w=11.3 l=0.35
X11 VDD2.t5 VN.t4 VTAIL.t0 B.t0 sky130_fd_pr__nfet_01v8 ad=1.8645 pd=11.63 as=4.407 ps=23.38 w=11.3 l=0.35
X12 VTAIL.t1 VN.t5 VDD2.t4 B.t1 sky130_fd_pr__nfet_01v8 ad=1.8645 pd=11.63 as=1.8645 ps=11.63 w=11.3 l=0.35
X13 VDD1.t4 VP.t5 VTAIL.t10 B.t22 sky130_fd_pr__nfet_01v8 ad=4.407 pd=23.38 as=1.8645 ps=11.63 w=11.3 l=0.35
X14 VTAIL.t8 VP.t6 VDD1.t3 B.t4 sky130_fd_pr__nfet_01v8 ad=1.8645 pd=11.63 as=1.8645 ps=11.63 w=11.3 l=0.35
X15 VTAIL.t5 VN.t6 VDD2.t3 B.t5 sky130_fd_pr__nfet_01v8 ad=1.8645 pd=11.63 as=1.8645 ps=11.63 w=11.3 l=0.35
X16 VDD2.t2 VN.t7 VTAIL.t17 B.t22 sky130_fd_pr__nfet_01v8 ad=4.407 pd=23.38 as=1.8645 ps=11.63 w=11.3 l=0.35
X17 VDD2.t1 VN.t8 VTAIL.t18 B.t23 sky130_fd_pr__nfet_01v8 ad=1.8645 pd=11.63 as=1.8645 ps=11.63 w=11.3 l=0.35
X18 VDD2.t0 VN.t9 VTAIL.t19 B.t21 sky130_fd_pr__nfet_01v8 ad=1.8645 pd=11.63 as=1.8645 ps=11.63 w=11.3 l=0.35
X19 B.t14 B.t11 B.t13 B.t12 sky130_fd_pr__nfet_01v8 ad=4.407 pd=23.38 as=0 ps=0 w=11.3 l=0.35
X20 VDD1.t2 VP.t7 VTAIL.t15 B.t21 sky130_fd_pr__nfet_01v8 ad=1.8645 pd=11.63 as=1.8645 ps=11.63 w=11.3 l=0.35
X21 VTAIL.t7 VP.t8 VDD1.t1 B.t1 sky130_fd_pr__nfet_01v8 ad=1.8645 pd=11.63 as=1.8645 ps=11.63 w=11.3 l=0.35
X22 VDD1.t0 VP.t9 VTAIL.t16 B.t6 sky130_fd_pr__nfet_01v8 ad=4.407 pd=23.38 as=1.8645 ps=11.63 w=11.3 l=0.35
X23 B.t10 B.t7 B.t9 B.t8 sky130_fd_pr__nfet_01v8 ad=4.407 pd=23.38 as=0 ps=0 w=11.3 l=0.35
R0 VP.n21 VP.t3 918.721
R1 VP.n14 VP.t5 918.721
R2 VP.n11 VP.t0 918.721
R3 VP.n5 VP.t9 918.721
R4 VP.n13 VP.t4 891.701
R5 VP.n18 VP.t2 891.701
R6 VP.n20 VP.t6 891.701
R7 VP.n10 VP.t1 891.701
R8 VP.n8 VP.t7 891.701
R9 VP.n4 VP.t8 891.701
R10 VP.n6 VP.n5 161.489
R11 VP.n22 VP.n21 161.3
R12 VP.n7 VP.n6 161.3
R13 VP.n8 VP.n3 161.3
R14 VP.n9 VP.n2 161.3
R15 VP.n12 VP.n11 161.3
R16 VP.n19 VP.n0 161.3
R17 VP.n18 VP.n17 161.3
R18 VP.n16 VP.n1 161.3
R19 VP.n15 VP.n14 161.3
R20 VP.n18 VP.n1 47.4702
R21 VP.n19 VP.n18 47.4702
R22 VP.n9 VP.n8 47.4702
R23 VP.n8 VP.n7 47.4702
R24 VP.n15 VP.n12 40.4929
R25 VP.n14 VP.n13 21.1793
R26 VP.n21 VP.n20 21.1793
R27 VP.n11 VP.n10 21.1793
R28 VP.n5 VP.n4 21.1793
R29 VP.n13 VP.n1 0.730803
R30 VP.n20 VP.n19 0.730803
R31 VP.n10 VP.n9 0.730803
R32 VP.n7 VP.n4 0.730803
R33 VP.n6 VP.n3 0.189894
R34 VP.n3 VP.n2 0.189894
R35 VP.n12 VP.n2 0.189894
R36 VP.n16 VP.n15 0.189894
R37 VP.n17 VP.n16 0.189894
R38 VP.n17 VP.n0 0.189894
R39 VP.n22 VP.n0 0.189894
R40 VP VP.n22 0.0516364
R41 VTAIL.n256 VTAIL.n200 289.615
R42 VTAIL.n58 VTAIL.n2 289.615
R43 VTAIL.n194 VTAIL.n138 289.615
R44 VTAIL.n128 VTAIL.n72 289.615
R45 VTAIL.n221 VTAIL.n220 185
R46 VTAIL.n223 VTAIL.n222 185
R47 VTAIL.n216 VTAIL.n215 185
R48 VTAIL.n229 VTAIL.n228 185
R49 VTAIL.n231 VTAIL.n230 185
R50 VTAIL.n212 VTAIL.n211 185
R51 VTAIL.n238 VTAIL.n237 185
R52 VTAIL.n239 VTAIL.n210 185
R53 VTAIL.n241 VTAIL.n240 185
R54 VTAIL.n208 VTAIL.n207 185
R55 VTAIL.n247 VTAIL.n246 185
R56 VTAIL.n249 VTAIL.n248 185
R57 VTAIL.n204 VTAIL.n203 185
R58 VTAIL.n255 VTAIL.n254 185
R59 VTAIL.n257 VTAIL.n256 185
R60 VTAIL.n23 VTAIL.n22 185
R61 VTAIL.n25 VTAIL.n24 185
R62 VTAIL.n18 VTAIL.n17 185
R63 VTAIL.n31 VTAIL.n30 185
R64 VTAIL.n33 VTAIL.n32 185
R65 VTAIL.n14 VTAIL.n13 185
R66 VTAIL.n40 VTAIL.n39 185
R67 VTAIL.n41 VTAIL.n12 185
R68 VTAIL.n43 VTAIL.n42 185
R69 VTAIL.n10 VTAIL.n9 185
R70 VTAIL.n49 VTAIL.n48 185
R71 VTAIL.n51 VTAIL.n50 185
R72 VTAIL.n6 VTAIL.n5 185
R73 VTAIL.n57 VTAIL.n56 185
R74 VTAIL.n59 VTAIL.n58 185
R75 VTAIL.n195 VTAIL.n194 185
R76 VTAIL.n193 VTAIL.n192 185
R77 VTAIL.n142 VTAIL.n141 185
R78 VTAIL.n187 VTAIL.n186 185
R79 VTAIL.n185 VTAIL.n184 185
R80 VTAIL.n146 VTAIL.n145 185
R81 VTAIL.n150 VTAIL.n148 185
R82 VTAIL.n179 VTAIL.n178 185
R83 VTAIL.n177 VTAIL.n176 185
R84 VTAIL.n152 VTAIL.n151 185
R85 VTAIL.n171 VTAIL.n170 185
R86 VTAIL.n169 VTAIL.n168 185
R87 VTAIL.n156 VTAIL.n155 185
R88 VTAIL.n163 VTAIL.n162 185
R89 VTAIL.n161 VTAIL.n160 185
R90 VTAIL.n129 VTAIL.n128 185
R91 VTAIL.n127 VTAIL.n126 185
R92 VTAIL.n76 VTAIL.n75 185
R93 VTAIL.n121 VTAIL.n120 185
R94 VTAIL.n119 VTAIL.n118 185
R95 VTAIL.n80 VTAIL.n79 185
R96 VTAIL.n84 VTAIL.n82 185
R97 VTAIL.n113 VTAIL.n112 185
R98 VTAIL.n111 VTAIL.n110 185
R99 VTAIL.n86 VTAIL.n85 185
R100 VTAIL.n105 VTAIL.n104 185
R101 VTAIL.n103 VTAIL.n102 185
R102 VTAIL.n90 VTAIL.n89 185
R103 VTAIL.n97 VTAIL.n96 185
R104 VTAIL.n95 VTAIL.n94 185
R105 VTAIL.n219 VTAIL.t0 149.524
R106 VTAIL.n21 VTAIL.t11 149.524
R107 VTAIL.n159 VTAIL.t14 149.524
R108 VTAIL.n93 VTAIL.t3 149.524
R109 VTAIL.n222 VTAIL.n221 104.615
R110 VTAIL.n222 VTAIL.n215 104.615
R111 VTAIL.n229 VTAIL.n215 104.615
R112 VTAIL.n230 VTAIL.n229 104.615
R113 VTAIL.n230 VTAIL.n211 104.615
R114 VTAIL.n238 VTAIL.n211 104.615
R115 VTAIL.n239 VTAIL.n238 104.615
R116 VTAIL.n240 VTAIL.n239 104.615
R117 VTAIL.n240 VTAIL.n207 104.615
R118 VTAIL.n247 VTAIL.n207 104.615
R119 VTAIL.n248 VTAIL.n247 104.615
R120 VTAIL.n248 VTAIL.n203 104.615
R121 VTAIL.n255 VTAIL.n203 104.615
R122 VTAIL.n256 VTAIL.n255 104.615
R123 VTAIL.n24 VTAIL.n23 104.615
R124 VTAIL.n24 VTAIL.n17 104.615
R125 VTAIL.n31 VTAIL.n17 104.615
R126 VTAIL.n32 VTAIL.n31 104.615
R127 VTAIL.n32 VTAIL.n13 104.615
R128 VTAIL.n40 VTAIL.n13 104.615
R129 VTAIL.n41 VTAIL.n40 104.615
R130 VTAIL.n42 VTAIL.n41 104.615
R131 VTAIL.n42 VTAIL.n9 104.615
R132 VTAIL.n49 VTAIL.n9 104.615
R133 VTAIL.n50 VTAIL.n49 104.615
R134 VTAIL.n50 VTAIL.n5 104.615
R135 VTAIL.n57 VTAIL.n5 104.615
R136 VTAIL.n58 VTAIL.n57 104.615
R137 VTAIL.n194 VTAIL.n193 104.615
R138 VTAIL.n193 VTAIL.n141 104.615
R139 VTAIL.n186 VTAIL.n141 104.615
R140 VTAIL.n186 VTAIL.n185 104.615
R141 VTAIL.n185 VTAIL.n145 104.615
R142 VTAIL.n150 VTAIL.n145 104.615
R143 VTAIL.n178 VTAIL.n150 104.615
R144 VTAIL.n178 VTAIL.n177 104.615
R145 VTAIL.n177 VTAIL.n151 104.615
R146 VTAIL.n170 VTAIL.n151 104.615
R147 VTAIL.n170 VTAIL.n169 104.615
R148 VTAIL.n169 VTAIL.n155 104.615
R149 VTAIL.n162 VTAIL.n155 104.615
R150 VTAIL.n162 VTAIL.n161 104.615
R151 VTAIL.n128 VTAIL.n127 104.615
R152 VTAIL.n127 VTAIL.n75 104.615
R153 VTAIL.n120 VTAIL.n75 104.615
R154 VTAIL.n120 VTAIL.n119 104.615
R155 VTAIL.n119 VTAIL.n79 104.615
R156 VTAIL.n84 VTAIL.n79 104.615
R157 VTAIL.n112 VTAIL.n84 104.615
R158 VTAIL.n112 VTAIL.n111 104.615
R159 VTAIL.n111 VTAIL.n85 104.615
R160 VTAIL.n104 VTAIL.n85 104.615
R161 VTAIL.n104 VTAIL.n103 104.615
R162 VTAIL.n103 VTAIL.n89 104.615
R163 VTAIL.n96 VTAIL.n89 104.615
R164 VTAIL.n96 VTAIL.n95 104.615
R165 VTAIL.n221 VTAIL.t0 52.3082
R166 VTAIL.n23 VTAIL.t11 52.3082
R167 VTAIL.n161 VTAIL.t14 52.3082
R168 VTAIL.n95 VTAIL.t3 52.3082
R169 VTAIL.n137 VTAIL.n136 43.4717
R170 VTAIL.n135 VTAIL.n134 43.4717
R171 VTAIL.n71 VTAIL.n70 43.4717
R172 VTAIL.n69 VTAIL.n68 43.4717
R173 VTAIL.n263 VTAIL.n262 43.4715
R174 VTAIL.n1 VTAIL.n0 43.4715
R175 VTAIL.n65 VTAIL.n64 43.4715
R176 VTAIL.n67 VTAIL.n66 43.4715
R177 VTAIL.n261 VTAIL.n260 30.246
R178 VTAIL.n63 VTAIL.n62 30.246
R179 VTAIL.n199 VTAIL.n198 30.246
R180 VTAIL.n133 VTAIL.n132 30.246
R181 VTAIL.n69 VTAIL.n67 23.2807
R182 VTAIL.n261 VTAIL.n199 22.6945
R183 VTAIL.n241 VTAIL.n208 13.1884
R184 VTAIL.n43 VTAIL.n10 13.1884
R185 VTAIL.n148 VTAIL.n146 13.1884
R186 VTAIL.n82 VTAIL.n80 13.1884
R187 VTAIL.n242 VTAIL.n210 12.8005
R188 VTAIL.n246 VTAIL.n245 12.8005
R189 VTAIL.n44 VTAIL.n12 12.8005
R190 VTAIL.n48 VTAIL.n47 12.8005
R191 VTAIL.n184 VTAIL.n183 12.8005
R192 VTAIL.n180 VTAIL.n179 12.8005
R193 VTAIL.n118 VTAIL.n117 12.8005
R194 VTAIL.n114 VTAIL.n113 12.8005
R195 VTAIL.n237 VTAIL.n236 12.0247
R196 VTAIL.n249 VTAIL.n206 12.0247
R197 VTAIL.n39 VTAIL.n38 12.0247
R198 VTAIL.n51 VTAIL.n8 12.0247
R199 VTAIL.n187 VTAIL.n144 12.0247
R200 VTAIL.n176 VTAIL.n149 12.0247
R201 VTAIL.n121 VTAIL.n78 12.0247
R202 VTAIL.n110 VTAIL.n83 12.0247
R203 VTAIL.n235 VTAIL.n212 11.249
R204 VTAIL.n250 VTAIL.n204 11.249
R205 VTAIL.n37 VTAIL.n14 11.249
R206 VTAIL.n52 VTAIL.n6 11.249
R207 VTAIL.n188 VTAIL.n142 11.249
R208 VTAIL.n175 VTAIL.n152 11.249
R209 VTAIL.n122 VTAIL.n76 11.249
R210 VTAIL.n109 VTAIL.n86 11.249
R211 VTAIL.n232 VTAIL.n231 10.4732
R212 VTAIL.n254 VTAIL.n253 10.4732
R213 VTAIL.n34 VTAIL.n33 10.4732
R214 VTAIL.n56 VTAIL.n55 10.4732
R215 VTAIL.n192 VTAIL.n191 10.4732
R216 VTAIL.n172 VTAIL.n171 10.4732
R217 VTAIL.n126 VTAIL.n125 10.4732
R218 VTAIL.n106 VTAIL.n105 10.4732
R219 VTAIL.n220 VTAIL.n219 10.2747
R220 VTAIL.n22 VTAIL.n21 10.2747
R221 VTAIL.n160 VTAIL.n159 10.2747
R222 VTAIL.n94 VTAIL.n93 10.2747
R223 VTAIL.n228 VTAIL.n214 9.69747
R224 VTAIL.n257 VTAIL.n202 9.69747
R225 VTAIL.n30 VTAIL.n16 9.69747
R226 VTAIL.n59 VTAIL.n4 9.69747
R227 VTAIL.n195 VTAIL.n140 9.69747
R228 VTAIL.n168 VTAIL.n154 9.69747
R229 VTAIL.n129 VTAIL.n74 9.69747
R230 VTAIL.n102 VTAIL.n88 9.69747
R231 VTAIL.n260 VTAIL.n259 9.45567
R232 VTAIL.n62 VTAIL.n61 9.45567
R233 VTAIL.n198 VTAIL.n197 9.45567
R234 VTAIL.n132 VTAIL.n131 9.45567
R235 VTAIL.n259 VTAIL.n258 9.3005
R236 VTAIL.n202 VTAIL.n201 9.3005
R237 VTAIL.n253 VTAIL.n252 9.3005
R238 VTAIL.n251 VTAIL.n250 9.3005
R239 VTAIL.n206 VTAIL.n205 9.3005
R240 VTAIL.n245 VTAIL.n244 9.3005
R241 VTAIL.n218 VTAIL.n217 9.3005
R242 VTAIL.n225 VTAIL.n224 9.3005
R243 VTAIL.n227 VTAIL.n226 9.3005
R244 VTAIL.n214 VTAIL.n213 9.3005
R245 VTAIL.n233 VTAIL.n232 9.3005
R246 VTAIL.n235 VTAIL.n234 9.3005
R247 VTAIL.n236 VTAIL.n209 9.3005
R248 VTAIL.n243 VTAIL.n242 9.3005
R249 VTAIL.n61 VTAIL.n60 9.3005
R250 VTAIL.n4 VTAIL.n3 9.3005
R251 VTAIL.n55 VTAIL.n54 9.3005
R252 VTAIL.n53 VTAIL.n52 9.3005
R253 VTAIL.n8 VTAIL.n7 9.3005
R254 VTAIL.n47 VTAIL.n46 9.3005
R255 VTAIL.n20 VTAIL.n19 9.3005
R256 VTAIL.n27 VTAIL.n26 9.3005
R257 VTAIL.n29 VTAIL.n28 9.3005
R258 VTAIL.n16 VTAIL.n15 9.3005
R259 VTAIL.n35 VTAIL.n34 9.3005
R260 VTAIL.n37 VTAIL.n36 9.3005
R261 VTAIL.n38 VTAIL.n11 9.3005
R262 VTAIL.n45 VTAIL.n44 9.3005
R263 VTAIL.n158 VTAIL.n157 9.3005
R264 VTAIL.n165 VTAIL.n164 9.3005
R265 VTAIL.n167 VTAIL.n166 9.3005
R266 VTAIL.n154 VTAIL.n153 9.3005
R267 VTAIL.n173 VTAIL.n172 9.3005
R268 VTAIL.n175 VTAIL.n174 9.3005
R269 VTAIL.n149 VTAIL.n147 9.3005
R270 VTAIL.n181 VTAIL.n180 9.3005
R271 VTAIL.n197 VTAIL.n196 9.3005
R272 VTAIL.n140 VTAIL.n139 9.3005
R273 VTAIL.n191 VTAIL.n190 9.3005
R274 VTAIL.n189 VTAIL.n188 9.3005
R275 VTAIL.n144 VTAIL.n143 9.3005
R276 VTAIL.n183 VTAIL.n182 9.3005
R277 VTAIL.n92 VTAIL.n91 9.3005
R278 VTAIL.n99 VTAIL.n98 9.3005
R279 VTAIL.n101 VTAIL.n100 9.3005
R280 VTAIL.n88 VTAIL.n87 9.3005
R281 VTAIL.n107 VTAIL.n106 9.3005
R282 VTAIL.n109 VTAIL.n108 9.3005
R283 VTAIL.n83 VTAIL.n81 9.3005
R284 VTAIL.n115 VTAIL.n114 9.3005
R285 VTAIL.n131 VTAIL.n130 9.3005
R286 VTAIL.n74 VTAIL.n73 9.3005
R287 VTAIL.n125 VTAIL.n124 9.3005
R288 VTAIL.n123 VTAIL.n122 9.3005
R289 VTAIL.n78 VTAIL.n77 9.3005
R290 VTAIL.n117 VTAIL.n116 9.3005
R291 VTAIL.n227 VTAIL.n216 8.92171
R292 VTAIL.n258 VTAIL.n200 8.92171
R293 VTAIL.n29 VTAIL.n18 8.92171
R294 VTAIL.n60 VTAIL.n2 8.92171
R295 VTAIL.n196 VTAIL.n138 8.92171
R296 VTAIL.n167 VTAIL.n156 8.92171
R297 VTAIL.n130 VTAIL.n72 8.92171
R298 VTAIL.n101 VTAIL.n90 8.92171
R299 VTAIL.n224 VTAIL.n223 8.14595
R300 VTAIL.n26 VTAIL.n25 8.14595
R301 VTAIL.n164 VTAIL.n163 8.14595
R302 VTAIL.n98 VTAIL.n97 8.14595
R303 VTAIL.n220 VTAIL.n218 7.3702
R304 VTAIL.n22 VTAIL.n20 7.3702
R305 VTAIL.n160 VTAIL.n158 7.3702
R306 VTAIL.n94 VTAIL.n92 7.3702
R307 VTAIL.n223 VTAIL.n218 5.81868
R308 VTAIL.n25 VTAIL.n20 5.81868
R309 VTAIL.n163 VTAIL.n158 5.81868
R310 VTAIL.n97 VTAIL.n92 5.81868
R311 VTAIL.n224 VTAIL.n216 5.04292
R312 VTAIL.n260 VTAIL.n200 5.04292
R313 VTAIL.n26 VTAIL.n18 5.04292
R314 VTAIL.n62 VTAIL.n2 5.04292
R315 VTAIL.n198 VTAIL.n138 5.04292
R316 VTAIL.n164 VTAIL.n156 5.04292
R317 VTAIL.n132 VTAIL.n72 5.04292
R318 VTAIL.n98 VTAIL.n90 5.04292
R319 VTAIL.n228 VTAIL.n227 4.26717
R320 VTAIL.n258 VTAIL.n257 4.26717
R321 VTAIL.n30 VTAIL.n29 4.26717
R322 VTAIL.n60 VTAIL.n59 4.26717
R323 VTAIL.n196 VTAIL.n195 4.26717
R324 VTAIL.n168 VTAIL.n167 4.26717
R325 VTAIL.n130 VTAIL.n129 4.26717
R326 VTAIL.n102 VTAIL.n101 4.26717
R327 VTAIL.n231 VTAIL.n214 3.49141
R328 VTAIL.n254 VTAIL.n202 3.49141
R329 VTAIL.n33 VTAIL.n16 3.49141
R330 VTAIL.n56 VTAIL.n4 3.49141
R331 VTAIL.n192 VTAIL.n140 3.49141
R332 VTAIL.n171 VTAIL.n154 3.49141
R333 VTAIL.n126 VTAIL.n74 3.49141
R334 VTAIL.n105 VTAIL.n88 3.49141
R335 VTAIL.n219 VTAIL.n217 2.84303
R336 VTAIL.n21 VTAIL.n19 2.84303
R337 VTAIL.n159 VTAIL.n157 2.84303
R338 VTAIL.n93 VTAIL.n91 2.84303
R339 VTAIL.n232 VTAIL.n212 2.71565
R340 VTAIL.n253 VTAIL.n204 2.71565
R341 VTAIL.n34 VTAIL.n14 2.71565
R342 VTAIL.n55 VTAIL.n6 2.71565
R343 VTAIL.n191 VTAIL.n142 2.71565
R344 VTAIL.n172 VTAIL.n152 2.71565
R345 VTAIL.n125 VTAIL.n76 2.71565
R346 VTAIL.n106 VTAIL.n86 2.71565
R347 VTAIL.n237 VTAIL.n235 1.93989
R348 VTAIL.n250 VTAIL.n249 1.93989
R349 VTAIL.n39 VTAIL.n37 1.93989
R350 VTAIL.n52 VTAIL.n51 1.93989
R351 VTAIL.n188 VTAIL.n187 1.93989
R352 VTAIL.n176 VTAIL.n175 1.93989
R353 VTAIL.n122 VTAIL.n121 1.93989
R354 VTAIL.n110 VTAIL.n109 1.93989
R355 VTAIL.n262 VTAIL.t19 1.75271
R356 VTAIL.n262 VTAIL.t2 1.75271
R357 VTAIL.n0 VTAIL.t6 1.75271
R358 VTAIL.n0 VTAIL.t1 1.75271
R359 VTAIL.n64 VTAIL.t12 1.75271
R360 VTAIL.n64 VTAIL.t8 1.75271
R361 VTAIL.n66 VTAIL.t10 1.75271
R362 VTAIL.n66 VTAIL.t9 1.75271
R363 VTAIL.n136 VTAIL.t15 1.75271
R364 VTAIL.n136 VTAIL.t13 1.75271
R365 VTAIL.n134 VTAIL.t16 1.75271
R366 VTAIL.n134 VTAIL.t7 1.75271
R367 VTAIL.n70 VTAIL.t18 1.75271
R368 VTAIL.n70 VTAIL.t4 1.75271
R369 VTAIL.n68 VTAIL.t17 1.75271
R370 VTAIL.n68 VTAIL.t5 1.75271
R371 VTAIL.n236 VTAIL.n210 1.16414
R372 VTAIL.n246 VTAIL.n206 1.16414
R373 VTAIL.n38 VTAIL.n12 1.16414
R374 VTAIL.n48 VTAIL.n8 1.16414
R375 VTAIL.n184 VTAIL.n144 1.16414
R376 VTAIL.n179 VTAIL.n149 1.16414
R377 VTAIL.n118 VTAIL.n78 1.16414
R378 VTAIL.n113 VTAIL.n83 1.16414
R379 VTAIL.n135 VTAIL.n133 0.763431
R380 VTAIL.n63 VTAIL.n1 0.763431
R381 VTAIL.n71 VTAIL.n69 0.586707
R382 VTAIL.n133 VTAIL.n71 0.586707
R383 VTAIL.n137 VTAIL.n135 0.586707
R384 VTAIL.n199 VTAIL.n137 0.586707
R385 VTAIL.n67 VTAIL.n65 0.586707
R386 VTAIL.n65 VTAIL.n63 0.586707
R387 VTAIL.n263 VTAIL.n261 0.586707
R388 VTAIL VTAIL.n1 0.498345
R389 VTAIL.n242 VTAIL.n241 0.388379
R390 VTAIL.n245 VTAIL.n208 0.388379
R391 VTAIL.n44 VTAIL.n43 0.388379
R392 VTAIL.n47 VTAIL.n10 0.388379
R393 VTAIL.n183 VTAIL.n146 0.388379
R394 VTAIL.n180 VTAIL.n148 0.388379
R395 VTAIL.n117 VTAIL.n80 0.388379
R396 VTAIL.n114 VTAIL.n82 0.388379
R397 VTAIL.n225 VTAIL.n217 0.155672
R398 VTAIL.n226 VTAIL.n225 0.155672
R399 VTAIL.n226 VTAIL.n213 0.155672
R400 VTAIL.n233 VTAIL.n213 0.155672
R401 VTAIL.n234 VTAIL.n233 0.155672
R402 VTAIL.n234 VTAIL.n209 0.155672
R403 VTAIL.n243 VTAIL.n209 0.155672
R404 VTAIL.n244 VTAIL.n243 0.155672
R405 VTAIL.n244 VTAIL.n205 0.155672
R406 VTAIL.n251 VTAIL.n205 0.155672
R407 VTAIL.n252 VTAIL.n251 0.155672
R408 VTAIL.n252 VTAIL.n201 0.155672
R409 VTAIL.n259 VTAIL.n201 0.155672
R410 VTAIL.n27 VTAIL.n19 0.155672
R411 VTAIL.n28 VTAIL.n27 0.155672
R412 VTAIL.n28 VTAIL.n15 0.155672
R413 VTAIL.n35 VTAIL.n15 0.155672
R414 VTAIL.n36 VTAIL.n35 0.155672
R415 VTAIL.n36 VTAIL.n11 0.155672
R416 VTAIL.n45 VTAIL.n11 0.155672
R417 VTAIL.n46 VTAIL.n45 0.155672
R418 VTAIL.n46 VTAIL.n7 0.155672
R419 VTAIL.n53 VTAIL.n7 0.155672
R420 VTAIL.n54 VTAIL.n53 0.155672
R421 VTAIL.n54 VTAIL.n3 0.155672
R422 VTAIL.n61 VTAIL.n3 0.155672
R423 VTAIL.n197 VTAIL.n139 0.155672
R424 VTAIL.n190 VTAIL.n139 0.155672
R425 VTAIL.n190 VTAIL.n189 0.155672
R426 VTAIL.n189 VTAIL.n143 0.155672
R427 VTAIL.n182 VTAIL.n143 0.155672
R428 VTAIL.n182 VTAIL.n181 0.155672
R429 VTAIL.n181 VTAIL.n147 0.155672
R430 VTAIL.n174 VTAIL.n147 0.155672
R431 VTAIL.n174 VTAIL.n173 0.155672
R432 VTAIL.n173 VTAIL.n153 0.155672
R433 VTAIL.n166 VTAIL.n153 0.155672
R434 VTAIL.n166 VTAIL.n165 0.155672
R435 VTAIL.n165 VTAIL.n157 0.155672
R436 VTAIL.n131 VTAIL.n73 0.155672
R437 VTAIL.n124 VTAIL.n73 0.155672
R438 VTAIL.n124 VTAIL.n123 0.155672
R439 VTAIL.n123 VTAIL.n77 0.155672
R440 VTAIL.n116 VTAIL.n77 0.155672
R441 VTAIL.n116 VTAIL.n115 0.155672
R442 VTAIL.n115 VTAIL.n81 0.155672
R443 VTAIL.n108 VTAIL.n81 0.155672
R444 VTAIL.n108 VTAIL.n107 0.155672
R445 VTAIL.n107 VTAIL.n87 0.155672
R446 VTAIL.n100 VTAIL.n87 0.155672
R447 VTAIL.n100 VTAIL.n99 0.155672
R448 VTAIL.n99 VTAIL.n91 0.155672
R449 VTAIL VTAIL.n263 0.0888621
R450 VDD1.n56 VDD1.n0 289.615
R451 VDD1.n119 VDD1.n63 289.615
R452 VDD1.n57 VDD1.n56 185
R453 VDD1.n55 VDD1.n54 185
R454 VDD1.n4 VDD1.n3 185
R455 VDD1.n49 VDD1.n48 185
R456 VDD1.n47 VDD1.n46 185
R457 VDD1.n8 VDD1.n7 185
R458 VDD1.n12 VDD1.n10 185
R459 VDD1.n41 VDD1.n40 185
R460 VDD1.n39 VDD1.n38 185
R461 VDD1.n14 VDD1.n13 185
R462 VDD1.n33 VDD1.n32 185
R463 VDD1.n31 VDD1.n30 185
R464 VDD1.n18 VDD1.n17 185
R465 VDD1.n25 VDD1.n24 185
R466 VDD1.n23 VDD1.n22 185
R467 VDD1.n84 VDD1.n83 185
R468 VDD1.n86 VDD1.n85 185
R469 VDD1.n79 VDD1.n78 185
R470 VDD1.n92 VDD1.n91 185
R471 VDD1.n94 VDD1.n93 185
R472 VDD1.n75 VDD1.n74 185
R473 VDD1.n101 VDD1.n100 185
R474 VDD1.n102 VDD1.n73 185
R475 VDD1.n104 VDD1.n103 185
R476 VDD1.n71 VDD1.n70 185
R477 VDD1.n110 VDD1.n109 185
R478 VDD1.n112 VDD1.n111 185
R479 VDD1.n67 VDD1.n66 185
R480 VDD1.n118 VDD1.n117 185
R481 VDD1.n120 VDD1.n119 185
R482 VDD1.n21 VDD1.t0 149.524
R483 VDD1.n82 VDD1.t4 149.524
R484 VDD1.n56 VDD1.n55 104.615
R485 VDD1.n55 VDD1.n3 104.615
R486 VDD1.n48 VDD1.n3 104.615
R487 VDD1.n48 VDD1.n47 104.615
R488 VDD1.n47 VDD1.n7 104.615
R489 VDD1.n12 VDD1.n7 104.615
R490 VDD1.n40 VDD1.n12 104.615
R491 VDD1.n40 VDD1.n39 104.615
R492 VDD1.n39 VDD1.n13 104.615
R493 VDD1.n32 VDD1.n13 104.615
R494 VDD1.n32 VDD1.n31 104.615
R495 VDD1.n31 VDD1.n17 104.615
R496 VDD1.n24 VDD1.n17 104.615
R497 VDD1.n24 VDD1.n23 104.615
R498 VDD1.n85 VDD1.n84 104.615
R499 VDD1.n85 VDD1.n78 104.615
R500 VDD1.n92 VDD1.n78 104.615
R501 VDD1.n93 VDD1.n92 104.615
R502 VDD1.n93 VDD1.n74 104.615
R503 VDD1.n101 VDD1.n74 104.615
R504 VDD1.n102 VDD1.n101 104.615
R505 VDD1.n103 VDD1.n102 104.615
R506 VDD1.n103 VDD1.n70 104.615
R507 VDD1.n110 VDD1.n70 104.615
R508 VDD1.n111 VDD1.n110 104.615
R509 VDD1.n111 VDD1.n66 104.615
R510 VDD1.n118 VDD1.n66 104.615
R511 VDD1.n119 VDD1.n118 104.615
R512 VDD1.n127 VDD1.n126 60.5346
R513 VDD1.n62 VDD1.n61 60.1505
R514 VDD1.n129 VDD1.n128 60.1503
R515 VDD1.n125 VDD1.n124 60.1503
R516 VDD1.n23 VDD1.t0 52.3082
R517 VDD1.n84 VDD1.t4 52.3082
R518 VDD1.n62 VDD1.n60 47.5109
R519 VDD1.n125 VDD1.n123 47.5109
R520 VDD1.n129 VDD1.n127 37.1173
R521 VDD1.n10 VDD1.n8 13.1884
R522 VDD1.n104 VDD1.n71 13.1884
R523 VDD1.n46 VDD1.n45 12.8005
R524 VDD1.n42 VDD1.n41 12.8005
R525 VDD1.n105 VDD1.n73 12.8005
R526 VDD1.n109 VDD1.n108 12.8005
R527 VDD1.n49 VDD1.n6 12.0247
R528 VDD1.n38 VDD1.n11 12.0247
R529 VDD1.n100 VDD1.n99 12.0247
R530 VDD1.n112 VDD1.n69 12.0247
R531 VDD1.n50 VDD1.n4 11.249
R532 VDD1.n37 VDD1.n14 11.249
R533 VDD1.n98 VDD1.n75 11.249
R534 VDD1.n113 VDD1.n67 11.249
R535 VDD1.n54 VDD1.n53 10.4732
R536 VDD1.n34 VDD1.n33 10.4732
R537 VDD1.n95 VDD1.n94 10.4732
R538 VDD1.n117 VDD1.n116 10.4732
R539 VDD1.n22 VDD1.n21 10.2747
R540 VDD1.n83 VDD1.n82 10.2747
R541 VDD1.n57 VDD1.n2 9.69747
R542 VDD1.n30 VDD1.n16 9.69747
R543 VDD1.n91 VDD1.n77 9.69747
R544 VDD1.n120 VDD1.n65 9.69747
R545 VDD1.n60 VDD1.n59 9.45567
R546 VDD1.n123 VDD1.n122 9.45567
R547 VDD1.n20 VDD1.n19 9.3005
R548 VDD1.n27 VDD1.n26 9.3005
R549 VDD1.n29 VDD1.n28 9.3005
R550 VDD1.n16 VDD1.n15 9.3005
R551 VDD1.n35 VDD1.n34 9.3005
R552 VDD1.n37 VDD1.n36 9.3005
R553 VDD1.n11 VDD1.n9 9.3005
R554 VDD1.n43 VDD1.n42 9.3005
R555 VDD1.n59 VDD1.n58 9.3005
R556 VDD1.n2 VDD1.n1 9.3005
R557 VDD1.n53 VDD1.n52 9.3005
R558 VDD1.n51 VDD1.n50 9.3005
R559 VDD1.n6 VDD1.n5 9.3005
R560 VDD1.n45 VDD1.n44 9.3005
R561 VDD1.n122 VDD1.n121 9.3005
R562 VDD1.n65 VDD1.n64 9.3005
R563 VDD1.n116 VDD1.n115 9.3005
R564 VDD1.n114 VDD1.n113 9.3005
R565 VDD1.n69 VDD1.n68 9.3005
R566 VDD1.n108 VDD1.n107 9.3005
R567 VDD1.n81 VDD1.n80 9.3005
R568 VDD1.n88 VDD1.n87 9.3005
R569 VDD1.n90 VDD1.n89 9.3005
R570 VDD1.n77 VDD1.n76 9.3005
R571 VDD1.n96 VDD1.n95 9.3005
R572 VDD1.n98 VDD1.n97 9.3005
R573 VDD1.n99 VDD1.n72 9.3005
R574 VDD1.n106 VDD1.n105 9.3005
R575 VDD1.n58 VDD1.n0 8.92171
R576 VDD1.n29 VDD1.n18 8.92171
R577 VDD1.n90 VDD1.n79 8.92171
R578 VDD1.n121 VDD1.n63 8.92171
R579 VDD1.n26 VDD1.n25 8.14595
R580 VDD1.n87 VDD1.n86 8.14595
R581 VDD1.n22 VDD1.n20 7.3702
R582 VDD1.n83 VDD1.n81 7.3702
R583 VDD1.n25 VDD1.n20 5.81868
R584 VDD1.n86 VDD1.n81 5.81868
R585 VDD1.n60 VDD1.n0 5.04292
R586 VDD1.n26 VDD1.n18 5.04292
R587 VDD1.n87 VDD1.n79 5.04292
R588 VDD1.n123 VDD1.n63 5.04292
R589 VDD1.n58 VDD1.n57 4.26717
R590 VDD1.n30 VDD1.n29 4.26717
R591 VDD1.n91 VDD1.n90 4.26717
R592 VDD1.n121 VDD1.n120 4.26717
R593 VDD1.n54 VDD1.n2 3.49141
R594 VDD1.n33 VDD1.n16 3.49141
R595 VDD1.n94 VDD1.n77 3.49141
R596 VDD1.n117 VDD1.n65 3.49141
R597 VDD1.n21 VDD1.n19 2.84303
R598 VDD1.n82 VDD1.n80 2.84303
R599 VDD1.n53 VDD1.n4 2.71565
R600 VDD1.n34 VDD1.n14 2.71565
R601 VDD1.n95 VDD1.n75 2.71565
R602 VDD1.n116 VDD1.n67 2.71565
R603 VDD1.n50 VDD1.n49 1.93989
R604 VDD1.n38 VDD1.n37 1.93989
R605 VDD1.n100 VDD1.n98 1.93989
R606 VDD1.n113 VDD1.n112 1.93989
R607 VDD1.n128 VDD1.t8 1.75271
R608 VDD1.n128 VDD1.t9 1.75271
R609 VDD1.n61 VDD1.t1 1.75271
R610 VDD1.n61 VDD1.t2 1.75271
R611 VDD1.n126 VDD1.t3 1.75271
R612 VDD1.n126 VDD1.t6 1.75271
R613 VDD1.n124 VDD1.t5 1.75271
R614 VDD1.n124 VDD1.t7 1.75271
R615 VDD1.n46 VDD1.n6 1.16414
R616 VDD1.n41 VDD1.n11 1.16414
R617 VDD1.n99 VDD1.n73 1.16414
R618 VDD1.n109 VDD1.n69 1.16414
R619 VDD1.n45 VDD1.n8 0.388379
R620 VDD1.n42 VDD1.n10 0.388379
R621 VDD1.n105 VDD1.n104 0.388379
R622 VDD1.n108 VDD1.n71 0.388379
R623 VDD1 VDD1.n129 0.381966
R624 VDD1 VDD1.n62 0.205241
R625 VDD1.n59 VDD1.n1 0.155672
R626 VDD1.n52 VDD1.n1 0.155672
R627 VDD1.n52 VDD1.n51 0.155672
R628 VDD1.n51 VDD1.n5 0.155672
R629 VDD1.n44 VDD1.n5 0.155672
R630 VDD1.n44 VDD1.n43 0.155672
R631 VDD1.n43 VDD1.n9 0.155672
R632 VDD1.n36 VDD1.n9 0.155672
R633 VDD1.n36 VDD1.n35 0.155672
R634 VDD1.n35 VDD1.n15 0.155672
R635 VDD1.n28 VDD1.n15 0.155672
R636 VDD1.n28 VDD1.n27 0.155672
R637 VDD1.n27 VDD1.n19 0.155672
R638 VDD1.n88 VDD1.n80 0.155672
R639 VDD1.n89 VDD1.n88 0.155672
R640 VDD1.n89 VDD1.n76 0.155672
R641 VDD1.n96 VDD1.n76 0.155672
R642 VDD1.n97 VDD1.n96 0.155672
R643 VDD1.n97 VDD1.n72 0.155672
R644 VDD1.n106 VDD1.n72 0.155672
R645 VDD1.n107 VDD1.n106 0.155672
R646 VDD1.n107 VDD1.n68 0.155672
R647 VDD1.n114 VDD1.n68 0.155672
R648 VDD1.n115 VDD1.n114 0.155672
R649 VDD1.n115 VDD1.n64 0.155672
R650 VDD1.n122 VDD1.n64 0.155672
R651 VDD1.n127 VDD1.n125 0.0917057
R652 B.n322 B.t7 989.659
R653 B.n328 B.t15 989.659
R654 B.n88 B.t11 989.659
R655 B.n86 B.t18 989.659
R656 B.n618 B.n617 585
R657 B.n619 B.n618 585
R658 B.n264 B.n85 585
R659 B.n263 B.n262 585
R660 B.n261 B.n260 585
R661 B.n259 B.n258 585
R662 B.n257 B.n256 585
R663 B.n255 B.n254 585
R664 B.n253 B.n252 585
R665 B.n251 B.n250 585
R666 B.n249 B.n248 585
R667 B.n247 B.n246 585
R668 B.n245 B.n244 585
R669 B.n243 B.n242 585
R670 B.n241 B.n240 585
R671 B.n239 B.n238 585
R672 B.n237 B.n236 585
R673 B.n235 B.n234 585
R674 B.n233 B.n232 585
R675 B.n231 B.n230 585
R676 B.n229 B.n228 585
R677 B.n227 B.n226 585
R678 B.n225 B.n224 585
R679 B.n223 B.n222 585
R680 B.n221 B.n220 585
R681 B.n219 B.n218 585
R682 B.n217 B.n216 585
R683 B.n215 B.n214 585
R684 B.n213 B.n212 585
R685 B.n211 B.n210 585
R686 B.n209 B.n208 585
R687 B.n207 B.n206 585
R688 B.n205 B.n204 585
R689 B.n203 B.n202 585
R690 B.n201 B.n200 585
R691 B.n199 B.n198 585
R692 B.n197 B.n196 585
R693 B.n195 B.n194 585
R694 B.n193 B.n192 585
R695 B.n191 B.n190 585
R696 B.n189 B.n188 585
R697 B.n186 B.n185 585
R698 B.n184 B.n183 585
R699 B.n182 B.n181 585
R700 B.n180 B.n179 585
R701 B.n178 B.n177 585
R702 B.n176 B.n175 585
R703 B.n174 B.n173 585
R704 B.n172 B.n171 585
R705 B.n170 B.n169 585
R706 B.n168 B.n167 585
R707 B.n166 B.n165 585
R708 B.n164 B.n163 585
R709 B.n162 B.n161 585
R710 B.n160 B.n159 585
R711 B.n158 B.n157 585
R712 B.n156 B.n155 585
R713 B.n154 B.n153 585
R714 B.n152 B.n151 585
R715 B.n150 B.n149 585
R716 B.n148 B.n147 585
R717 B.n146 B.n145 585
R718 B.n144 B.n143 585
R719 B.n142 B.n141 585
R720 B.n140 B.n139 585
R721 B.n138 B.n137 585
R722 B.n136 B.n135 585
R723 B.n134 B.n133 585
R724 B.n132 B.n131 585
R725 B.n130 B.n129 585
R726 B.n128 B.n127 585
R727 B.n126 B.n125 585
R728 B.n124 B.n123 585
R729 B.n122 B.n121 585
R730 B.n120 B.n119 585
R731 B.n118 B.n117 585
R732 B.n116 B.n115 585
R733 B.n114 B.n113 585
R734 B.n112 B.n111 585
R735 B.n110 B.n109 585
R736 B.n108 B.n107 585
R737 B.n106 B.n105 585
R738 B.n104 B.n103 585
R739 B.n102 B.n101 585
R740 B.n100 B.n99 585
R741 B.n98 B.n97 585
R742 B.n96 B.n95 585
R743 B.n94 B.n93 585
R744 B.n92 B.n91 585
R745 B.n39 B.n38 585
R746 B.n616 B.n40 585
R747 B.n620 B.n40 585
R748 B.n615 B.n614 585
R749 B.n614 B.n36 585
R750 B.n613 B.n35 585
R751 B.n626 B.n35 585
R752 B.n612 B.n34 585
R753 B.n627 B.n34 585
R754 B.n611 B.n33 585
R755 B.n628 B.n33 585
R756 B.n610 B.n609 585
R757 B.n609 B.n29 585
R758 B.n608 B.n28 585
R759 B.n634 B.n28 585
R760 B.n607 B.n27 585
R761 B.n635 B.n27 585
R762 B.n606 B.n26 585
R763 B.n636 B.n26 585
R764 B.n605 B.n604 585
R765 B.n604 B.n25 585
R766 B.n603 B.n21 585
R767 B.n642 B.n21 585
R768 B.n602 B.n20 585
R769 B.n643 B.n20 585
R770 B.n601 B.n19 585
R771 B.n644 B.n19 585
R772 B.n600 B.n599 585
R773 B.n599 B.n18 585
R774 B.n598 B.n14 585
R775 B.n650 B.n14 585
R776 B.n597 B.n13 585
R777 B.n651 B.n13 585
R778 B.n596 B.n12 585
R779 B.n652 B.n12 585
R780 B.n595 B.n594 585
R781 B.n594 B.n11 585
R782 B.n593 B.n7 585
R783 B.n658 B.n7 585
R784 B.n592 B.n6 585
R785 B.n659 B.n6 585
R786 B.n591 B.n5 585
R787 B.n660 B.n5 585
R788 B.n590 B.n589 585
R789 B.n589 B.n4 585
R790 B.n588 B.n265 585
R791 B.n588 B.n587 585
R792 B.n577 B.n266 585
R793 B.n580 B.n266 585
R794 B.n579 B.n578 585
R795 B.n581 B.n579 585
R796 B.n576 B.n270 585
R797 B.n273 B.n270 585
R798 B.n575 B.n574 585
R799 B.n574 B.n573 585
R800 B.n272 B.n271 585
R801 B.n566 B.n272 585
R802 B.n565 B.n564 585
R803 B.n567 B.n565 585
R804 B.n563 B.n277 585
R805 B.n280 B.n277 585
R806 B.n562 B.n561 585
R807 B.n561 B.n560 585
R808 B.n279 B.n278 585
R809 B.n553 B.n279 585
R810 B.n552 B.n551 585
R811 B.n554 B.n552 585
R812 B.n550 B.n285 585
R813 B.n285 B.n284 585
R814 B.n549 B.n548 585
R815 B.n548 B.n547 585
R816 B.n287 B.n286 585
R817 B.n288 B.n287 585
R818 B.n540 B.n539 585
R819 B.n541 B.n540 585
R820 B.n538 B.n293 585
R821 B.n293 B.n292 585
R822 B.n537 B.n536 585
R823 B.n536 B.n535 585
R824 B.n295 B.n294 585
R825 B.n296 B.n295 585
R826 B.n528 B.n527 585
R827 B.n529 B.n528 585
R828 B.n299 B.n298 585
R829 B.n351 B.n349 585
R830 B.n352 B.n348 585
R831 B.n352 B.n300 585
R832 B.n355 B.n354 585
R833 B.n356 B.n347 585
R834 B.n358 B.n357 585
R835 B.n360 B.n346 585
R836 B.n363 B.n362 585
R837 B.n364 B.n345 585
R838 B.n366 B.n365 585
R839 B.n368 B.n344 585
R840 B.n371 B.n370 585
R841 B.n372 B.n343 585
R842 B.n374 B.n373 585
R843 B.n376 B.n342 585
R844 B.n379 B.n378 585
R845 B.n380 B.n341 585
R846 B.n382 B.n381 585
R847 B.n384 B.n340 585
R848 B.n387 B.n386 585
R849 B.n388 B.n339 585
R850 B.n390 B.n389 585
R851 B.n392 B.n338 585
R852 B.n395 B.n394 585
R853 B.n396 B.n337 585
R854 B.n398 B.n397 585
R855 B.n400 B.n336 585
R856 B.n403 B.n402 585
R857 B.n404 B.n335 585
R858 B.n406 B.n405 585
R859 B.n408 B.n334 585
R860 B.n411 B.n410 585
R861 B.n412 B.n333 585
R862 B.n414 B.n413 585
R863 B.n416 B.n332 585
R864 B.n419 B.n418 585
R865 B.n420 B.n331 585
R866 B.n422 B.n421 585
R867 B.n424 B.n330 585
R868 B.n427 B.n426 585
R869 B.n429 B.n327 585
R870 B.n431 B.n430 585
R871 B.n433 B.n326 585
R872 B.n436 B.n435 585
R873 B.n437 B.n325 585
R874 B.n439 B.n438 585
R875 B.n441 B.n324 585
R876 B.n444 B.n443 585
R877 B.n445 B.n321 585
R878 B.n448 B.n447 585
R879 B.n450 B.n320 585
R880 B.n453 B.n452 585
R881 B.n454 B.n319 585
R882 B.n456 B.n455 585
R883 B.n458 B.n318 585
R884 B.n461 B.n460 585
R885 B.n462 B.n317 585
R886 B.n464 B.n463 585
R887 B.n466 B.n316 585
R888 B.n469 B.n468 585
R889 B.n470 B.n315 585
R890 B.n472 B.n471 585
R891 B.n474 B.n314 585
R892 B.n477 B.n476 585
R893 B.n478 B.n313 585
R894 B.n480 B.n479 585
R895 B.n482 B.n312 585
R896 B.n485 B.n484 585
R897 B.n486 B.n311 585
R898 B.n488 B.n487 585
R899 B.n490 B.n310 585
R900 B.n493 B.n492 585
R901 B.n494 B.n309 585
R902 B.n496 B.n495 585
R903 B.n498 B.n308 585
R904 B.n501 B.n500 585
R905 B.n502 B.n307 585
R906 B.n504 B.n503 585
R907 B.n506 B.n306 585
R908 B.n509 B.n508 585
R909 B.n510 B.n305 585
R910 B.n512 B.n511 585
R911 B.n514 B.n304 585
R912 B.n517 B.n516 585
R913 B.n518 B.n303 585
R914 B.n520 B.n519 585
R915 B.n522 B.n302 585
R916 B.n525 B.n524 585
R917 B.n526 B.n301 585
R918 B.n531 B.n530 585
R919 B.n530 B.n529 585
R920 B.n532 B.n297 585
R921 B.n297 B.n296 585
R922 B.n534 B.n533 585
R923 B.n535 B.n534 585
R924 B.n291 B.n290 585
R925 B.n292 B.n291 585
R926 B.n543 B.n542 585
R927 B.n542 B.n541 585
R928 B.n544 B.n289 585
R929 B.n289 B.n288 585
R930 B.n546 B.n545 585
R931 B.n547 B.n546 585
R932 B.n283 B.n282 585
R933 B.n284 B.n283 585
R934 B.n556 B.n555 585
R935 B.n555 B.n554 585
R936 B.n557 B.n281 585