** sch_path: /home/chandru/Tools/OpenFASOC/generators/lc-dco/xschem_rundir/swcap_3M2C_scaled.sch
.subckt swcap_3M2C_scaled outn outp sw<7> sw<6> sw<5> sw<4> sw<3> sw<2> sw<1> sw<0> GND
*.PININFO outn:O outp:O sw[7:0]:I GND:B
XC2<7> net2 outn sky130_fd_pr__cap_mim_m3_1 W=1 L=1 MF=1 m=1
XC2<6> net2 outn sky130_fd_pr__cap_mim_m3_1 W=1 L=1 MF=1 m=1
XC2<5> net2 outn sky130_fd_pr__cap_mim_m3_1 W=1 L=1 MF=1 m=1
XC2<4> net2 outn sky130_fd_pr__cap_mim_m3_1 W=1 L=1 MF=1 m=1
XC2<3> net2 outn sky130_fd_pr__cap_mim_m3_1 W=1 L=1 MF=1 m=1
XC2<2> net2 outn sky130_fd_pr__cap_mim_m3_1 W=1 L=1 MF=1 m=1
XC2<1> net2 outn sky130_fd_pr__cap_mim_m3_1 W=1 L=1 MF=1 m=1
XC2<0> net2 outn sky130_fd_pr__cap_mim_m3_1 W=1 L=1 MF=1 m=1
XM6 net1 sw<0> net2 GND sky130_fd_pr__nfet_01v8_lvt L=0.15 W=4.8 nf=2 ad='int((nf+1)/2) * W/nf * 0.29'
+ as='int((nf+2)/2) * W/nf * 0.29' pd='2*int((nf+1)/2) * (W/nf + 0.29)' ps='2*int((nf+2)/2) * (W/nf + 0.29)'
+ nrd='0.29 / W' nrs='0.29 / W' sa=0 sb=0 sd=0 mult=1 m=1
XM1 GND sw<0> net1 GND sky130_fd_pr__nfet_01v8_lvt L=0.15 W=1 nf=2 ad='int((nf+1)/2) * W/nf * 0.29' as='int((nf+2)/2) * W/nf * 0.29'
+ pd='2*int((nf+1)/2) * (W/nf + 0.29)' ps='2*int((nf+2)/2) * (W/nf + 0.29)' nrd='0.29 / W' nrs='0.29 / W'
+ sa=0 sb=0 sd=0 mult=1 m=1
XM2 GND sw<0> net2 GND sky130_fd_pr__nfet_01v8_lvt L=0.15 W=1 nf=2 ad='int((nf+1)/2) * W/nf * 0.29' as='int((nf+2)/2) * W/nf * 0.29'
+ pd='2*int((nf+1)/2) * (W/nf + 0.29)' ps='2*int((nf+2)/2) * (W/nf + 0.29)' nrd='0.29 / W' nrs='0.29 / W'
+ sa=0 sb=0 sd=0 mult=1 m=1
XC1<7> outp net1 sky130_fd_pr__cap_mim_m3_1 W=1 L=1 MF=1 m=1
XC1<6> outp net1 sky130_fd_pr__cap_mim_m3_1 W=1 L=1 MF=1 m=1
XC1<5> outp net1 sky130_fd_pr__cap_mim_m3_1 W=1 L=1 MF=1 m=1
XC1<4> outp net1 sky130_fd_pr__cap_mim_m3_1 W=1 L=1 MF=1 m=1
XC1<3> outp net1 sky130_fd_pr__cap_mim_m3_1 W=1 L=1 MF=1 m=1
XC1<2> outp net1 sky130_fd_pr__cap_mim_m3_1 W=1 L=1 MF=1 m=1
XC1<1> outp net1 sky130_fd_pr__cap_mim_m3_1 W=1 L=1 MF=1 m=1
XC1<0> outp net1 sky130_fd_pr__cap_mim_m3_1 W=1 L=1 MF=1 m=1
XC4<15> net4 outn sky130_fd_pr__cap_mim_m3_1 W=1 L=1 MF=1 m=1
XC4<14> net4 outn sky130_fd_pr__cap_mim_m3_1 W=1 L=1 MF=1 m=1
XC4<13> net4 outn sky130_fd_pr__cap_mim_m3_1 W=1 L=1 MF=1 m=1
XC4<12> net4 outn sky130_fd_pr__cap_mim_m3_1 W=1 L=1 MF=1 m=1
XC4<11> net4 outn sky130_fd_pr__cap_mim_m3_1 W=1 L=1 MF=1 m=1
XC4<10> net4 outn sky130_fd_pr__cap_mim_m3_1 W=1 L=1 MF=1 m=1
XC4<9> net4 outn sky130_fd_pr__cap_mim_m3_1 W=1 L=1 MF=1 m=1
XC4<8> net4 outn sky130_fd_pr__cap_mim_m3_1 W=1 L=1 MF=1 m=1
XC4<7> net4 outn sky130_fd_pr__cap_mim_m3_1 W=1 L=1 MF=1 m=1
XC4<6> net4 outn sky130_fd_pr__cap_mim_m3_1 W=1 L=1 MF=1 m=1
XC4<5> net4 outn sky130_fd_pr__cap_mim_m3_1 W=1 L=1 MF=1 m=1
XC4<4> net4 outn sky130_fd_pr__cap_mim_m3_1 W=1 L=1 MF=1 m=1
XC4<3> net4 outn sky130_fd_pr__cap_mim_m3_1 W=1 L=1 MF=1 m=1
XC4<2> net4 outn sky130_fd_pr__cap_mim_m3_1 W=1 L=1 MF=1 m=1
XC4<1> net4 outn sky130_fd_pr__cap_mim_m3_1 W=1 L=1 MF=1 m=1
XC4<0> net4 outn sky130_fd_pr__cap_mim_m3_1 W=1 L=1 MF=1 m=1
XM3 net3 sw<1> net4 GND sky130_fd_pr__nfet_01v8_lvt L=0.15 W=4.8 nf=1 ad='int((nf+1)/2) * W/nf * 0.29'
+ as='int((nf+2)/2) * W/nf * 0.29' pd='2*int((nf+1)/2) * (W/nf + 0.29)' ps='2*int((nf+2)/2) * (W/nf + 0.29)'
+ nrd='0.29 / W' nrs='0.29 / W' sa=0 sb=0 sd=0 mult=1 m=1
XM4 GND sw<1> net3 GND sky130_fd_pr__nfet_01v8_lvt L=0.15 W=1 nf=2 ad='int((nf+1)/2) * W/nf * 0.29' as='int((nf+2)/2) * W/nf * 0.29'
+ pd='2*int((nf+1)/2) * (W/nf + 0.29)' ps='2*int((nf+2)/2) * (W/nf + 0.29)' nrd='0.29 / W' nrs='0.29 / W'
+ sa=0 sb=0 sd=0 mult=1 m=1
XM5 GND sw<1> net4 GND sky130_fd_pr__nfet_01v8_lvt L=0.15 W=1 nf=2 ad='int((nf+1)/2) * W/nf * 0.29' as='int((nf+2)/2) * W/nf * 0.29'
+ pd='2*int((nf+1)/2) * (W/nf + 0.29)' ps='2*int((nf+2)/2) * (W/nf + 0.29)' nrd='0.29 / W' nrs='0.29 / W'
+ sa=0 sb=0 sd=0 mult=1 m=1
XC3<15> outp net3 sky130_fd_pr__cap_mim_m3_1 W=1 L=1 MF=1 m=1
XC3<14> outp net3 sky130_fd_pr__cap_mim_m3_1 W=1 L=1 MF=1 m=1
XC3<13> outp net3 sky130_fd_pr__cap_mim_m3_1 W=1 L=1 MF=1 m=1
XC3<12> outp net3 sky130_fd_pr__cap_mim_m3_1 W=1 L=1 MF=1 m=1
XC3<11> outp net3 sky130_fd_pr__cap_mim_m3_1 W=1 L=1 MF=1 m=1
XC3<10> outp net3 sky130_fd_pr__cap_mim_m3_1 W=1 L=1 MF=1 m=1
XC3<9> outp net3 sky130_fd_pr__cap_mim_m3_1 W=1 L=1 MF=1 m=1
XC3<8> outp net3 sky130_fd_pr__cap_mim_m3_1 W=1 L=1 MF=1 m=1
XC3<7> outp net3 sky130_fd_pr__cap_mim_m3_1 W=1 L=1 MF=1 m=1
XC3<6> outp net3 sky130_fd_pr__cap_mim_m3_1 W=1 L=1 MF=1 m=1
XC3<5> outp net3 sky130_fd_pr__cap_mim_m3_1 W=1 L=1 MF=1 m=1
XC3<4> outp net3 sky130_fd_pr__cap_mim_m3_1 W=1 L=1 MF=1 m=1
XC3<3> outp net3 sky130_fd_pr__cap_mim_m3_1 W=1 L=1 MF=1 m=1
XC3<2> outp net3 sky130_fd_pr__cap_mim_m3_1 W=1 L=1 MF=1 m=1
XC3<1> outp net3 sky130_fd_pr__cap_mim_m3_1 W=1 L=1 MF=1 m=1
XC3<0> outp net3 sky130_fd_pr__cap_mim_m3_1 W=1 L=1 MF=1 m=1
XC6<31> net6 outn sky130_fd_pr__cap_mim_m3_1 W=1 L=1 MF=1 m=1
XC6<30> net6 outn sky130_fd_pr__cap_mim_m3_1 W=1 L=1 MF=1 m=1
XC6<29> net6 outn sky130_fd_pr__cap_mim_m3_1 W=1 L=1 MF=1 m=1
XC6<28> net6 outn sky130_fd_pr__cap_mim_m3_1 W=1 L=1 MF=1 m=1
XC6<27> net6 outn sky130_fd_pr__cap_mim_m3_1 W=1 L=1 MF=1 m=1
XC6<26> net6 outn sky130_fd_pr__cap_mim_m3_1 W=1 L=1 MF=1 m=1
XC6<25> net6 outn sky130_fd_pr__cap_mim_m3_1 W=1 L=1 MF=1 m=1
XC6<24> net6 outn sky130_fd_pr__cap_mim_m3_1 W=1 L=1 MF=1 m=1
XC6<23> net6 outn sky130_fd_pr__cap_mim_m3_1 W=1 L=1 MF=1 m=1
XC6<22> net6 outn sky130_fd_pr__cap_mim_m3_1 W=1 L=1 MF=1 m=1
XC6<21> net6 outn sky130_fd_pr__cap_mim_m3_1 W=1 L=1 MF=1 m=1
XC6<20> net6 outn sky130_fd_pr__cap_mim_m3_1 W=1 L=1 MF=1 m=1
XC6<19> net6 outn sky130_fd_pr__cap_mim_m3_1 W=1 L=1 MF=1 m=1
XC6<18> net6 outn sky130_fd_pr__cap_mim_m3_1 W=1 L=1 MF=1 m=1
XC6<17> net6 outn sky130_fd_pr__cap_mim_m3_1 W=1 L=1 MF=1 m=1
XC6<16> net6 outn sky130_fd_pr__cap_mim_m3_1 W=1 L=1 MF=1 m=1
XC6<15> net6 outn sky130_fd_pr__cap_mim_m3_1 W=1 L=1 MF=1 m=1
XC6<14> net6 outn sky130_fd_pr__cap_mim_m3_1 W=1 L=1 MF=1 m=1
XC6<13> net6 outn sky130_fd_pr__cap_mim_m3_1 W=1 L=1 MF=1 m=1
XC6<12> net6 outn sky130_fd_pr__cap_mim_m3_1 W=1 L=1 MF=1 m=1
XC6<11> net6 outn sky130_fd_pr__cap_mim_m3_1 W=1 L=1 MF=1 m=1
XC6<10> net6 outn sky130_fd_pr__cap_mim_m3_1 W=1 L=1 MF=1 m=1
XC6<9> net6 outn sky130_fd_pr__cap_mim_m3_1 W=1 L=1 MF=1 m=1
XC6<8> net6 outn sky130_fd_pr__cap_mim_m3_1 W=1 L=1 MF=1 m=1
XC6<7> net6 outn sky130_fd_pr__cap_mim_m3_1 W=1 L=1 MF=1 m=1
XC6<6> net6 outn sky130_fd_pr__cap_mim_m3_1 W=1 L=1 MF=1 m=1
XC6<5> net6 outn sky130_fd_pr__cap_mim_m3_1 W=1 L=1 MF=1 m=1
XC6<4> net6 outn sky130_fd_pr__cap_mim_m3_1 W=1 L=1 MF=1 m=1
XC6<3> net6 outn sky130_fd_pr__cap_mim_m3_1 W=1 L=1 MF=1 m=1
XC6<2> net6 outn sky130_fd_pr__cap_mim_m3_1 W=1 L=1 MF=1 m=1
XC6<1> net6 outn sky130_fd_pr__cap_mim_m3_1 W=1 L=1 MF=1 m=1
XC6<0> net6 outn sky130_fd_pr__cap_mim_m3_1 W=1 L=1 MF=1 m=1
XM7 net5 sw<2> net6 GND sky130_fd_pr__nfet_01v8_lvt L=0.15 W=4.8 nf=6 ad='int((nf+1)/2) * W/nf * 0.29'
+ as='int((nf+2)/2) * W/nf * 0.29' pd='2*int((nf+1)/2) * (W/nf + 0.29)' ps='2*int((nf+2)/2) * (W/nf + 0.29)'
+ nrd='0.29 / W' nrs='0.29 / W' sa=0 sb=0 sd=0 mult=1 m=1
XM8 GND sw<2> net5 GND sky130_fd_pr__nfet_01v8_lvt L=0.15 W=1 nf=2 ad='int((nf+1)/2) * W/nf * 0.29' as='int((nf+2)/2) * W/nf * 0.29'
+ pd='2*int((nf+1)/2) * (W/nf + 0.29)' ps='2*int((nf+2)/2) * (W/nf + 0.29)' nrd='0.29 / W' nrs='0.29 / W'
+ sa=0 sb=0 sd=0 mult=1 m=1
XM9 GND sw<2> net6 GND sky130_fd_pr__nfet_01v8_lvt L=0.15 W=1 nf=2 ad='int((nf+1)/2) * W/nf * 0.29' as='int((nf+2)/2) * W/nf * 0.29'
+ pd='2*int((nf+1)/2) * (W/nf + 0.29)' ps='2*int((nf+2)/2) * (W/nf + 0.29)' nrd='0.29 / W' nrs='0.29 / W'
+ sa=0 sb=0 sd=0 mult=1 m=1
XC5<31> outp net5 sky130_fd_pr__cap_mim_m3_1 W=1 L=1 MF=1 m=1
XC5<30> outp net5 sky130_fd_pr__cap_mim_m3_1 W=1 L=1 MF=1 m=1
XC5<29> outp net5 sky130_fd_pr__cap_mim_m3_1 W=1 L=1 MF=1 m=1
XC5<28> outp net5 sky130_fd_pr__cap_mim_m3_1 W=1 L=1 MF=1 m=1
XC5<27> outp net5 sky130_fd_pr__cap_mim_m3_1 W=1 L=1 MF=1 m=1
XC5<26> outp net5 sky130_fd_pr__cap_mim_m3_1 W=1 L=1 MF=1 m=1
XC5<25> outp net5 sky130_fd_pr__cap_mim_m3_1 W=1 L=1 MF=1 m=1
XC5<24> outp net5 sky130_fd_pr__cap_mim_m3_1 W=1 L=1 MF=1 m=1
XC5<23> outp net5 sky130_fd_pr__cap_mim_m3_1 W=1 L=1 MF=1 m=1
XC5<22> outp net5 sky130_fd_pr__cap_mim_m3_1 W=1 L=1 MF=1 m=1
XC5<21> outp net5 sky130_fd_pr__cap_mim_m3_1 W=1 L=1 MF=1 m=1
XC5<20> outp net5 sky130_fd_pr__cap_mim_m3_1 W=1 L=1 MF=1 m=1
XC5<19> outp net5 sky130_fd_pr__cap_mim_m3_1 W=1 L=1 MF=1 m=1
XC5<18> outp net5 sky130_fd_pr__cap_mim_m3_1 W=1 L=1 MF=1 m=1
XC5<17> outp net5 sky130_fd_pr__cap_mim_m3_1 W=1 L=1 MF=1 m=1
XC5<16> outp net5 sky130_fd_pr__cap_mim_m3_1 W=1 L=1 MF=1 m=1
XC5<15> outp net5 sky130_fd_pr__cap_mim_m3_1 W=1 L=1 MF=1 m=1
XC5<14> outp net5 sky130_fd_pr__cap_mim_m3_1 W=1 L=1 MF=1 m=1
XC5<13> outp net5 sky130_fd_pr__cap_mim_m3_1 W=1 L=1 MF=1 m=1
XC5<12> outp net5 sky130_fd_pr__cap_mim_m3_1 W=1 L=1 MF=1 m=1
XC5<11> outp net5 sky130_fd_pr__cap_mim_m3_1 W=1 L=1 MF=1 m=1
XC5<10> outp net5 sky130_fd_pr__cap_mim_m3_1 W=1 L=1 MF=1 m=1
XC5<9> outp net5 sky130_fd_pr__cap_mim_m3_1 W=1 L=1 MF=1 m=1
XC5<8> outp net5 sky130_fd_pr__cap_mim_m3_1 W=1 L=1 MF=1 m=1
XC5<7> outp net5 sky130_fd_pr__cap_mim_m3_1 W=1 L=1 MF=1 m=1
XC5<6> outp net5 sky130_fd_pr__cap_mim_m3_1 W=1 L=1 MF=1 m=1
XC5<5> outp net5 sky130_fd_pr__cap_mim_m3_1 W=1 L=1 MF=1 m=1
XC5<4> outp net5 sky130_fd_pr__cap_mim_m3_1 W=1 L=1 MF=1 m=1
XC5<3> outp net5 sky130_fd_pr__cap_mim_m3_1 W=1 L=1 MF=1 m=1
XC5<2> outp net5 sky130_fd_pr__cap_mim_m3_1 W=1 L=1 MF=1 m=1
XC5<1> outp net5 sky130_fd_pr__cap_mim_m3_1 W=1 L=1 MF=1 m=1
XC5<0> outp net5 sky130_fd_pr__cap_mim_m3_1 W=1 L=1 MF=1 m=1
XC8<63> net8 outn sky130_fd_pr__cap_mim_m3_1 W=1 L=1 MF=1 m=1
XC8<62> net8 outn sky130_fd_pr__cap_mim_m3_1 W=1 L=1 MF=1 m=1
XC8<61> net8 outn sky130_fd_pr__cap_mim_m3_1 W=1 L=1 MF=1 m=1
XC8<60> net8 outn sky130_fd_pr__cap_mim_m3_1 W=1 L=1 MF=1 m=1
XC8<59> net8 outn sky130_fd_pr__cap_mim_m3_1 W=1 L=1 MF=1 m=1
XC8<58> net8 outn sky130_fd_pr__cap_mim_m3_1 W=1 L=1 MF=1 m=1
XC8<57> net8 outn sky130_fd_pr__cap_mim_m3_1 W=1 L=1 MF=1 m=1
XC8<56> net8 outn sky130_fd_pr__cap_mim_m3_1 W=1 L=1 MF=1 m=1
XC8<55> net8 outn sky130_fd_pr__cap_mim_m3_1 W=1 L=1 MF=1 m=1
XC8<54> net8 outn sky130_fd_pr__cap_mim_m3_1 W=1 L=1 MF=1 m=1
XC8<53> net8 outn sky130_fd_pr__cap_mim_m3_1 W=1 L=1 MF=1 m=1
XC8<52> net8 outn sky130_fd_pr__cap_mim_m3_1 W=1 L=1 MF=1 m=1
XC8<51> net8 outn sky130_fd_pr__cap_mim_m3_1 W=1 L=1 MF=1 m=1
XC8<50> net8 outn sky130_fd_pr__cap_mim_m3_1 W=1 L=1 MF=1 m=1
XC8<49> net8 outn sky130_fd_pr__cap_mim_m3_1 W=1 L=1 MF=1 m=1
XC8<48> net8 outn sky130_fd_pr__cap_mim_m3_1 W=1 L=1 MF=1 m=1
XC8<47> net8 outn sky130_fd_pr__cap_mim_m3_1 W=1 L=1 MF=1 m=1
XC8<46> net8 outn sky130_fd_pr__cap_mim_m3_1 W=1 L=1 MF=1 m=1
XC8<45> net8 outn sky130_fd_pr__cap_mim_m3_1 W=1 L=1 MF=1 m=1
XC8<44> net8 outn sky130_fd_pr__cap_mim_m3_1 W=1 L=1 MF=1 m=1
XC8<43> net8 outn sky130_fd_pr__cap_mim_m3_1 W=1 L=1 MF=1 m=1
XC8<42> net8 outn sky130_fd_pr__cap_mim_m3_1 W=1 L=1 MF=1 m=1
XC8<41> net8 outn sky130_fd_pr__cap_mim_m3_1 W=1 L=1 MF=1 m=1
XC8<40> net8 outn sky130_fd_pr__cap_mim_m3_1 W=1 L=1 MF=1 m=1
XC8<39> net8 outn sky130_fd_pr__cap_mim_m3_1 W=1 L=1 MF=1 m=1
XC8<38> net8 outn sky130_fd_pr__cap_mim_m3_1 W=1 L=1 MF=1 m=1
XC8<37> net8 outn sky130_fd_pr__cap_mim_m3_1 W=1 L=1 MF=1 m=1
XC8<36> net8 outn sky130_fd_pr__cap_mim_m3_1 W=1 L=1 MF=1 m=1
XC8<35> net8 outn sky130_fd_pr__cap_mim_m3_1 W=1 L=1 MF=1 m=1
XC8<34> net8 outn sky130_fd_pr__cap_mim_m3_1 W=1 L=1 MF=1 m=1
XC8<33> net8 outn sky130_fd_pr__cap_mim_m3_1 W=1 L=1 MF=1 m=1
XC8<32> net8 outn sky130_fd_pr__cap_mim_m3_1 W=1 L=1 MF=1 m=1
XC8<31> net8 outn sky130_fd_pr__cap_mim_m3_1 W=1 L=1 MF=1 m=1
XC8<30> net8 outn sky130_fd_pr__cap_mim_m3_1 W=1 L=1 MF=1 m=1
XC8<29> net8 outn sky130_fd_pr__cap_mim_m3_1 W=1 L=1 MF=1 m=1
XC8<28> net8 outn sky130_fd_pr__cap_mim_m3_1 W=1 L=1 MF=1 m=1
XC8<27> net8 outn sky130_fd_pr__cap_mim_m3_1 W=1 L=1 MF=1 m=1
XC8<26> net8 outn sky130_fd_pr__cap_mim_m3_1 W=1 L=1 MF=1 m=1
XC8<25> net8 outn sky130_fd_pr__cap_mim_m3_1 W=1 L=1 MF=1 m=1
XC8<24> net8 outn sky130_fd_pr__cap_mim_m3_1 W=1 L=1 MF=1 m=1
XC8<23> net8 outn sky130_fd_pr__cap_mim_m3_1 W=1 L=1 MF=1 m=1
XC8<22> net8 outn sky130_fd_pr__cap_mim_m3_1 W=1 L=1 MF=1 m=1
XC8<21> net8 outn sky130_fd_pr__cap_mim_m3_1 W=1 L=1 MF=1 m=1
XC8<20> net8 outn sky130_fd_pr__cap_mim_m3_1 W=1 L=1 MF=1 m=1
XC8<19> net8 outn sky130_fd_pr__cap_mim_m3_1 W=1 L=1 MF=1 m=1
XC8<18> net8 outn sky130_fd_pr__cap_mim_m3_1 W=1 L=1 MF=1 m=1
XC8<17> net8 outn sky130_fd_pr__cap_mim_m3_1 W=1 L=1 MF=1 m=1
XC8<16> net8 outn sky130_fd_pr__cap_mim_m3_1 W=1 L=1 MF=1 m=1
XC8<15> net8 outn sky130_fd_pr__cap_mim_m3_1 W=1 L=1 MF=1 m=1
XC8<14> net8 outn sky130_fd_pr__cap_mim_m3_1 W=1 L=1 MF=1 m=1
XC8<13> net8 outn sky130_fd_pr__cap_mim_m3_1 W=1 L=1 MF=1 m=1
XC8<12> net8 outn sky130_fd_pr__cap_mim_m3_1 W=1 L=1 MF=1 m=1
XC8<11> net8 outn sky130_fd_pr__cap_mim_m3_1 W=1 L=1 MF=1 m=1
XC8<10> net8 outn sky130_fd_pr__cap_mim_m3_1 W=1 L=1 MF=1 m=1
XC8<9> net8 outn sky130_fd_pr__cap_mim_m3_1 W=1 L=1 MF=1 m=1
XC8<8> net8 outn sky130_fd_pr__cap_mim_m3_1 W=1 L=1 MF=1 m=1
XC8<7> net8 outn sky130_fd_pr__cap_mim_m3_1 W=1 L=1 MF=1 m=1
XC8<6> net8 outn sky130_fd_pr__cap_mim_m3_1 W=1 L=1 MF=1 m=1
XC8<5> net8 outn sky130_fd_pr__cap_mim_m3_1 W=1 L=1 MF=1 m=1
XC8<4> net8 outn sky130_fd_pr__cap_mim_m3_1 W=1 L=1 MF=1 m=1
XC8<3> net8 outn sky130_fd_pr__cap_mim_m3_1 W=1 L=1 MF=1 m=1
XC8<2> net8 outn sky130_fd_pr__cap_mim_m3_1 W=1 L=1 MF=1 m=1
XC8<1> net8 outn sky130_fd_pr__cap_mim_m3_1 W=1 L=1 MF=1 m=1
XC8<0> net8 outn sky130_fd_pr__cap_mim_m3_1 W=1 L=1 MF=1 m=1
XM10 net7 sw<3> net8 GND sky130_fd_pr__nfet_01v8_lvt L=0.15 W=4.8 nf=6 ad='int((nf+1)/2) * W/nf * 0.29'
+ as='int((nf+2)/2) * W/nf * 0.29' pd='2*int((nf+1)/2) * (W/nf + 0.29)' ps='2*int((nf+2)/2) * (W/nf + 0.29)'
+ nrd='0.29 / W' nrs='0.29 / W' sa=0 sb=0 sd=0 mult=1 m=1
XM11 GND sw<3> net7 GND sky130_fd_pr__nfet_01v8_lvt L=0.15 W=1 nf=2 ad='int((nf+1)/2) * W/nf * 0.29'
+ as='int((nf+2)/2) * W/nf * 0.29' pd='2*int((nf+1)/2) * (W/nf + 0.29)' ps='2*int((nf+2)/2) * (W/nf + 0.29)'
+ nrd='0.29 / W' nrs='0.29 / W' sa=0 sb=0 sd=0 mult=1 m=1
XM12 GND sw<3> net8 GND sky130_fd_pr__nfet_01v8_lvt L=0.15 W=1 nf=2 ad='int((nf+1)/2) * W/nf * 0.29'
+ as='int((nf+2)/2) * W/nf * 0.29' pd='2*int((nf+1)/2) * (W/nf + 0.29)' ps='2*int((nf+2)/2) * (W/nf + 0.29)'
+ nrd='0.29 / W' nrs='0.29 / W' sa=0 sb=0 sd=0 mult=1 m=1
XC7<63> outp net7 sky130_fd_pr__cap_mim_m3_1 W=1 L=1 MF=1 m=1
XC7<62> outp net7 sky130_fd_pr__cap_mim_m3_1 W=1 L=1 MF=1 m=1
XC7<61> outp net7 sky130_fd_pr__cap_mim_m3_1 W=1 L=1 MF=1 m=1
XC7<60> outp net7 sky130_fd_pr__cap_mim_m3_1 W=1 L=1 MF=1 m=1
XC7<59> outp net7 sky130_fd_pr__cap_mim_m3_1 W=1 L=1 MF=1 m=1
XC7<58> outp net7 sky130_fd_pr__cap_mim_m3_1 W=1 L=1 MF=1 m=1
XC7<57> outp net7 sky130_fd_pr__cap_mim_m3_1 W=1 L=1 MF=1 m=1
XC7<56> outp net7 sky130_fd_pr__cap_mim_m3_1 W=1 L=1 MF=1 m=1
XC7<55> outp net7 sky130_fd_pr__cap_mim_m3_1 W=1 L=1 MF=1 m=1
XC7<54> outp net7 sky130_fd_pr__cap_mim_m3_1 W=1 L=1 MF=1 m=1
XC7<53> outp net7 sky130_fd_pr__cap_mim_m3_1 W=1 L=1 MF=1 m=1
XC7<52> outp net7 sky130_fd_pr__cap_mim_m3_1 W=1 L=1 MF=1 m=1
XC7<51> outp net7 sky130_fd_pr__cap_mim_m3_1 W=1 L=1 MF=1 m=1
XC7<50> outp net7 sky130_fd_pr__cap_mim_m3_1 W=1 L=1 MF=1 m=1
XC7<49> outp net7 sky130_fd_pr__cap_mim_m3_1 W=1 L=1 MF=1 m=1
XC7<48> outp net7 sky130_fd_pr__cap_mim_m3_1 W=1 L=1 MF=1 m=1
XC7<47> outp net7 sky130_fd_pr__cap_mim_m3_1 W=1 L=1 MF=1 m=1
XC7<46> outp net7 sky130_fd_pr__cap_mim_m3_1 W=1 L=1 MF=1 m=1
XC7<45> outp net7 sky130_fd_pr__cap_mim_m3_1 W=1 L=1 MF=1 m=1
XC7<44> outp net7 sky130_fd_pr__cap_mim_m3_1 W=1 L=1 MF=1 m=1
XC7<43> outp net7 sky130_fd_pr__cap_mim_m3_1 W=1 L=1 MF=1 m=1
XC7<42> outp net7 sky130_fd_pr__cap_mim_m3_1 W=1 L=1 MF=1 m=1
XC7<41> outp net7 sky130_fd_pr__cap_mim_m3_1 W=1 L=1 MF=1 m=1
XC7<40> outp net7 sky130_fd_pr__cap_mim_m3_1 W=1 L=1 MF=1 m=1
XC7<39> outp net7 sky130_fd_pr__cap_mim_m3_1 W=1 L=1 MF=1 m=1
XC7<38> outp net7 sky130_fd_pr__cap_mim_m3_1 W=1 L=1 MF=1 m=1
XC7<37> outp net7 sky130_fd_pr__cap_mim_m3_1 W=1 L=1 MF=1 m=1
XC7<36> outp net7 sky130_fd_pr__cap_mim_m3_1 W=1 L=1 MF=1 m=1
XC7<35> outp net7 sky130_fd_pr__cap_mim_m3_1 W=1 L=1 MF=1 m=1
XC7<34> outp net7 sky130_fd_pr__cap_mim_m3_1 W=1 L=1 MF=1 m=1
XC7<33> outp net7 sky130_fd_pr__cap_mim_m3_1 W=1 L=1 MF=1 m=1
XC7<32> outp net7 sky130_fd_pr__cap_mim_m3_1 W=1 L=1 MF=1 m=1
XC7<31> outp net7 sky130_fd_pr__cap_mim_m3_1 W=1 L=1 MF=1 m=1
XC7<30> outp net7 sky130_fd_pr__cap_mim_m3_1 W=1 L=1 MF=1 m=1
XC7<29> outp net7 sky130_fd_pr__cap_mim_m3_1 W=1 L=1 MF=1 m=1
XC7<28> outp net7 sky130_fd_pr__cap_mim_m3_1 W=1 L=1 MF=1 m=1
XC7<27> outp net7 sky130_fd_pr__cap_mim_m3_1 W=1 L=1 MF=1 m=1
XC7<26> outp net7 sky130_fd_pr__cap_mim_m3_1 W=1 L=1 MF=1 m=1
XC7<25> outp net7 sky130_fd_pr__cap_mim_m3_1 W=1 L=1 MF=1 m=1
XC7<24> outp net7 sky130_fd_pr__cap_mim_m3_1 W=1 L=1 MF=1 m=1
XC7<23> outp net7 sky130_fd_pr__cap_mim_m3_1 W=1 L=1 MF=1 m=1
XC7<22> outp net7 sky130_fd_pr__cap_mim_m3_1 W=1 L=1 MF=1 m=1
XC7<21> outp net7 sky130_fd_pr__cap_mim_m3_1 W=1 L=1 MF=1 m=1
XC7<20> outp net7 sky130_fd_pr__cap_mim_m3_1 W=1 L=1 MF=1 m=1
XC7<19> outp net7 sky130_fd_pr__cap_mim_m3_1 W=1 L=1 MF=1 m=1
XC7<18> outp net7 sky130_fd_pr__cap_mim_m3_1 W=1 L=1 MF=1 m=1
XC7<17> outp net7 sky130_fd_pr__cap_mim_m3_1 W=1 L=1 MF=1 m=1
XC7<16> outp net7 sky130_fd_pr__cap_mim_m3_1 W=1 L=1 MF=1 m=1
XC7<15> outp net7 sky130_fd_pr__cap_mim_m3_1 W=1 L=1 MF=1 m=1
XC7<14> outp net7 sky130_fd_pr__cap_mim_m3_1 W=1 L=1 MF=1 m=1
XC7<13> outp net7 sky130_fd_pr__cap_mim_m3_1 W=1 L=1 MF=1 m=1
XC7<12> outp net7 sky130_fd_pr__cap_mim_m3_1 W=1 L=1 MF=1 m=1
XC7<11> outp net7 sky130_fd_pr__cap_mim_m3_1 W=1 L=1 MF=1 m=1
XC7<10> outp net7 sky130_fd_pr__cap_mim_m3_1 W=1 L=1 MF=1 m=1
XC7<9> outp net7 sky130_fd_pr__cap_mim_m3_1 W=1 L=1 MF=1 m=1
XC7<8> outp net7 sky130_fd_pr__cap_mim_m3_1 W=1 L=1 MF=1 m=1
XC7<7> outp net7 sky130_fd_pr__cap_mim_m3_1 W=1 L=1 MF=1 m=1
XC7<6> outp net7 sky130_fd_pr__cap_mim_m3_1 W=1 L=1 MF=1 m=1
XC7<5> outp net7 sky130_fd_pr__cap_mim_m3_1 W=1 L=1 MF=1 m=1
XC7<4> outp net7 sky130_fd_pr__cap_mim_m3_1 W=1 L=1 MF=1 m=1
XC7<3> outp net7 sky130_fd_pr__cap_mim_m3_1 W=1 L=1 MF=1 m=1
XC7<2> outp net7 sky130_fd_pr__cap_mim_m3_1 W=1 L=1 MF=1 m=1
XC7<1> outp net7 sky130_fd_pr__cap_mim_m3_1 W=1 L=1 MF=1 m=1
XC7<0> outp net7 sky130_fd_pr__cap_mim_m3_1 W=1 L=1 MF=1 m=1
XC10<127> net10<1> outn sky130_fd_pr__cap_mim_m3_1 W=1 L=1 MF=1 m=1
XC10<126> net10<0> outn sky130_fd_pr__cap_mim_m3_1 W=1 L=1 MF=1 m=1
XC10<125> net10<1> outn sky130_fd_pr__cap_mim_m3_1 W=1 L=1 MF=1 m=1
XC10<124> net10<0> outn sky130_fd_pr__cap_mim_m3_1 W=1 L=1 MF=1 m=1
XC10<123> net10<1> outn sky130_fd_pr__cap_mim_m3_1 W=1 L=1 MF=1 m=1
XC10<122> net10<0> outn sky130_fd_pr__cap_mim_m3_1 W=1 L=1 MF=1 m=1
XC10<121> net10<1> outn sky130_fd_pr__cap_mim_m3_1 W=1 L=1 MF=1 m=1
XC10<120> net10<0> outn sky130_fd_pr__cap_mim_m3_1 W=1 L=1 MF=1 m=1
XC10<119> net10<1> outn sky130_fd_pr__cap_mim_m3_1 W=1 L=1 MF=1 m=1
XC10<118> net10<0> outn sky130_fd_pr__cap_mim_m3_1 W=1 L=1 MF=1 m=1
XC10<117> net10<1> outn sky130_fd_pr__cap_mim_m3_1 W=1 L=1 MF=1 m=1
XC10<116> net10<0> outn sky130_fd_pr__cap_mim_m3_1 W=1 L=1 MF=1 m=1
XC10<115> net10<1> outn sky130_fd_pr__cap_mim_m3_1 W=1 L=1 MF=1 m=1
XC10<114> net10<0> outn sky130_fd_pr__cap_mim_m3_1 W=1 L=1 MF=1 m=1
XC10<113> net10<1> outn sky130_fd_pr__cap_mim_m3_1 W=1 L=1 MF=1 m=1
XC10<112> net10<0> outn sky130_fd_pr__cap_mim_m3_1 W=1 L=1 MF=1 m=1
XC10<111> net10<1> outn sky130_fd_pr__cap_mim_m3_1 W=1 L=1 MF=1 m=1
XC10<110> net10<0> outn sky130_fd_pr__cap_mim_m3_1 W=1 L=1 MF=1 m=1
XC10<109> net10<1> outn sky130_fd_pr__cap_mim_m3_1 W=1 L=1 MF=1 m=1
XC10<108> net10<0> outn sky130_fd_pr__cap_mim_m3_1 W=1 L=1 MF=1 m=1
XC10<107> net10<1> outn sky130_fd_pr__cap_mim_m3_1 W=1 L=1 MF=1 m=1
XC10<106> net10<0> outn sky130_fd_pr__cap_mim_m3_1 W=1 L=1 MF=1 m=1
XC10<105> net10<1> outn sky130_fd_pr__cap_mim_m3_1 W=1 L=1 MF=1 m=1
XC10<104> net10<0> outn sky130_fd_pr__cap_mim_m3_1 W=1 L=1 MF=1 m=1
XC10<103> net10<1> outn sky130_fd_pr__cap_mim_m3_1 W=1 L=1 MF=1 m=1
XC10<102> net10<0> outn sky130_fd_pr__cap_mim_m3_1 W=1 L=1 MF=1 m=1
XC10<101> net10<1> outn sky130_fd_pr__cap_mim_m3_1 W=1 L=1 MF=1 m=1
XC10<100> net10<0> outn sky130_fd_pr__cap_mim_m3_1 W=1 L=1 MF=1 m=1
XC10<99> net10<1> outn sky130_fd_pr__cap_mim_m3_1 W=1 L=1 MF=1 m=1
XC10<98> net10<0> outn sky130_fd_pr__cap_mim_m3_1 W=1 L=1 MF=1 m=1
XC10<97> net10<1> outn sky130_fd_pr__cap_mim_m3_1 W=1 L=1 MF=1 m=1
XC10<96> net10<0> outn sky130_fd_pr__cap_mim_m3_1 W=1 L=1 MF=1 m=1
XC10<95> net10<1> outn sky130_fd_pr__cap_mim_m3_1 W=1 L=1 MF=1 m=1
XC10<94> net10<0> outn sky130_fd_pr__cap_mim_m3_1 W=1 L=1 MF=1 m=1
XC10<93> net10<1> outn sky130_fd_pr__cap_mim_m3_1 W=1 L=1 MF=1 m=1
XC10<92> net10<0> outn sky130_fd_pr__cap_mim_m3_1 W=1 L=1 MF=1 m=1
XC10<91> net10<1> outn sky130_fd_pr__cap_mim_m3_1 W=1 L=1 MF=1 m=1
XC10<90> net10<0> outn sky130_fd_pr__cap_mim_m3_1 W=1 L=1 MF=1 m=1
XC10<89> net10<1> outn sky130_fd_pr__cap_mim_m3_1 W=1 L=1 MF=1 m=1
XC10<88> net10<0> outn sky130_fd_pr__cap_mim_m3_1 W=1 L=1 MF=1 m=1
XC10<87> net10<1> outn sky130_fd_pr__cap_mim_m3_1 W=1 L=1 MF=1 m=1
XC10<86> net10<0> outn sky130_fd_pr__cap_mim_m3_1 W=1 L=1 MF=1 m=1
XC10<85> net10<1> outn sky130_fd_pr__cap_mim_m3_1 W=1 L=1 MF=1 m=1
XC10<84> net10<0> outn sky130_fd_pr__cap_mim_m3_1 W=1 L=1 MF=1 m=1
XC10<83> net10<1> outn sky130_fd_pr__cap_mim_m3_1 W=1 L=1 MF=1 m=1
XC10<82> net10<0> outn sky130_fd_pr__cap_mim_m3_1 W=1 L=1 MF=1 m=1
XC10<81> net10<1> outn sky130_fd_pr__cap_mim_m3_1 W=1 L=1 MF=1 m=1
XC10<80> net10<0> outn sky130_fd_pr__cap_mim_m3_1 W=1 L=1 MF=1 m=1
XC10<79> net10<1> outn sky130_fd_pr__cap_mim_m3_1 W=1 L=1 MF=1 m=1
XC10<78> net10<0> outn sky130_fd_pr__cap_mim_m3_1 W=1 L=1 MF=1 m=1
XC10<77> net10<1> outn sky130_fd_pr__cap_mim_m3_1 W=1 L=1 MF=1 m=1
XC10<76> net10<0> outn sky130_fd_pr__cap_mim_m3_1 W=1 L=1 MF=1 m=1
XC10<75> net10<1> outn sky130_fd_pr__cap_mim_m3_1 W=1 L=1 MF=1 m=1
XC10<74> net10<0> outn sky130_fd_pr__cap_mim_m3_1 W=1 L=1 MF=1 m=1
XC10<73> net10<1> outn sky130_fd_pr__cap_mim_m3_1 W=1 L=1 MF=1 m=1
XC10<72> net10<0> outn sky130_fd_pr__cap_mim_m3_1 W=1 L=1 MF=1 m=1
XC10<71> net10<1> outn sky130_fd_pr__cap_mim_m3_1 W=1 L=1 MF=1 m=1
XC10<70> net10<0> outn sky130_fd_pr__cap_mim_m3_1 W=1 L=1 MF=1 m=1
XC10<69> net10<1> outn sky130_fd_pr__cap_mim_m3_1 W=1 L=1 MF=1 m=1
XC10<68> net10<0> outn sky130_fd_pr__cap_mim_m3_1 W=1 L=1 MF=1 m=1
XC10<67> net10<1> outn sky130_fd_pr__cap_mim_m3_1 W=1 L=1 MF=1 m=1
XC10<66> net10<0> outn sky130_fd_pr__cap_mim_m3_1 W=1 L=1 MF=1 m=1
XC10<65> net10<1> outn sky130_fd_pr__cap_mim_m3_1 W=1 L=1 MF=1 m=1
XC10<64> net10<0> outn sky130_fd_pr__cap_mim_m3_1 W=1 L=1 MF=1 m=1
XC10<63> net10<1> outn sky130_fd_pr__cap_mim_m3_1 W=1 L=1 MF=1 m=1
XC10<62> net10<0> outn sky130_fd_pr__cap_mim_m3_1 W=1 L=1 MF=1 m=1
XC10<61> net10<1> outn sky130_fd_pr__cap_mim_m3_1 W=1 L=1 MF=1 m=1
XC10<60> net10<0> outn sky130_fd_pr__cap_mim_m3_1 W=1 L=1 MF=1 m=1
XC10<59> net10<1> outn sky130_fd_pr__cap_mim_m3_1 W=1 L=1 MF=1 m=1
XC10<58> net10<0> outn sky130_fd_pr__cap_mim_m3_1 W=1 L=1 MF=1 m=1
XC10<57> net10<1> outn sky130_fd_pr__cap_mim_m3_1 W=1 L=1 MF=1 m=1
XC10<56> net10<0> outn sky130_fd_pr__cap_mim_m3_1 W=1 L=1 MF=1 m=1
XC10<55> net10<1> outn sky130_fd_pr__cap_mim_m3_1 W=1 L=1 MF=1 m=1
XC10<54> net10<0> outn sky130_fd_pr__cap_mim_m3_1 W=1 L=1 MF=1 m=1
XC10<53> net10<1> outn sky130_fd_pr__cap_mim_m3_1 W=1 L=1 MF=1 m=1
XC10<52> net10<0> outn sky130_fd_pr__cap_mim_m3_1 W=1 L=1 MF=1 m=1
XC10<51> net10<1> outn sky130_fd_pr__cap_mim_m3_1 W=1 L=1 MF=1 m=1
XC10<50> net10<0> outn sky130_fd_pr__cap_mim_m3_1 W=1 L=1 MF=1 m=1
XC10<49> net10<1> outn sky130_fd_pr__cap_mim_m3_1 W=1 L=1 MF=1 m=1
XC10<48> net10<0> outn sky130_fd_pr__cap_mim_m3_1 W=1 L=1 MF=1 m=1
XC10<47> net10<1> outn sky130_fd_pr__cap_mim_m3_1 W=1 L=1 MF=1 m=1
XC10<46> net10<0> outn sky130_fd_pr__cap_mim_m3_1 W=1 L=1 MF=1 m=1
XC10<45> net10<1> outn sky130_fd_pr__cap_mim_m3_1 W=1 L=1 MF=1 m=1
XC10<44> net10<0> outn sky130_fd_pr__cap_mim_m3_1 W=1 L=1 MF=1 m=1
XC10<43> net10<1> outn sky130_fd_pr__cap_mim_m3_1 W=1 L=1 MF=1 m=1
XC10<42> net10<0> outn sky130_fd_pr__cap_mim_m3_1 W=1 L=1 MF=1 m=1
XC10<41> net10<1> outn sky130_fd_pr__cap_mim_m3_1 W=1 L=1 MF=1 m=1
XC10<40> net10<0> outn sky130_fd_pr__cap_mim_m3_1 W=1 L=1 MF=1 m=1
XC10<39> net10<1> outn sky130_fd_pr__cap_mim_m3_1 W=1 L=1 MF=1 m=1
XC10<38> net10<0> outn sky130_fd_pr__cap_mim_m3_1 W=1 L=1 MF=1 m=1
XC10<37> net10<1> outn sky130_fd_pr__cap_mim_m3_1 W=1 L=1 MF=1 m=1
XC10<36> net10<0> outn sky130_fd_pr__cap_mim_m3_1 W=1 L=1 MF=1 m=1
XC10<35> net10<1> outn sky130_fd_pr__cap_mim_m3_1 W=1 L=1 MF=1 m=1
XC10<34> net10<0> outn sky130_fd_pr__cap_mim_m3_1 W=1 L=1 MF=1 m=1
XC10<33> net10<1> outn sky130_fd_pr__cap_mim_m3_1 W=1 L=1 MF=1 m=1
XC10<32> net10<0> outn sky130_fd_pr__cap_mim_m3_1 W=1 L=1 MF=1 m=1
XC10<31> net10<1> outn sky130_fd_pr__cap_mim_m3_1 W=1 L=1 MF=1 m=1
XC10<30> net10<0> outn sky130_fd_pr__cap_mim_m3_1 W=1 L=1 MF=1 m=1
XC10<29> net10<1> outn sky130_fd_pr__cap_mim_m3_1 W=1 L=1 MF=1 m=1
XC10<28> net10<0> outn sky130_fd_pr__cap_mim_m3_1 W=1 L=1 MF=1 m=1
XC10<27> net10<1> outn sky130_fd_pr__cap_mim_m3_1 W=1 L=1 MF=1 m=1
XC10<26> net10<0> outn sky130_fd_pr__cap_mim_m3_1 W=1 L=1 MF=1 m=1
XC10<25> net10<1> outn sky130_fd_pr__cap_mim_m3_1 W=1 L=1 MF=1 m=1
XC10<24> net10<0> outn sky130_fd_pr__cap_mim_m3_1 W=1 L=1 MF=1 m=1
XC10<23> net10<1> outn sky130_fd_pr__cap_mim_m3_1 W=1 L=1 MF=1 m=1
XC10<22> net10<0> outn sky130_fd_pr__cap_mim_m3_1 W=1 L=1 MF=1 m=1
XC10<21> net10<1> outn sky130_fd_pr__cap_mim_m3_1 W=1 L=1 MF=1 m=1
XC10<20> net10<0> outn sky130_fd_pr__cap_mim_m3_1 W=1 L=1 MF=1 m=1
XC10<19> net10<1> outn sky130_fd_pr__cap_mim_m3_1 W=1 L=1 MF=1 m=1
XC10<18> net10<0> outn sky130_fd_pr__cap_mim_m3_1 W=1 L=1 MF=1 m=1
XC10<17> net10<1> outn sky130_fd_pr__cap_mim_m3_1 W=1 L=1 MF=1 m=1
XC10<16> net10<0> outn sky130_fd_pr__cap_mim_m3_1 W=1 L=1 MF=1 m=1
XC10<15> net10<1> outn sky130_fd_pr__cap_mim_m3_1 W=1 L=1 MF=1 m=1
XC10<14> net10<0> outn sky130_fd_pr__cap_mim_m3_1 W=1 L=1 MF=1 m=1
XC10<13> net10<1> outn sky130_fd_pr__cap_mim_m3_1 W=1 L=1 MF=1 m=1
XC10<12> net10<0> outn sky130_fd_pr__cap_mim_m3_1 W=1 L=1 MF=1 m=1
XC10<11> net10<1> outn sky130_fd_pr__cap_mim_m3_1 W=1 L=1 MF=1 m=1
XC10<10> net10<0> outn sky130_fd_pr__cap_mim_m3_1 W=1 L=1 MF=1 m=1
XC10<9> net10<1> outn sky130_fd_pr__cap_mim_m3_1 W=1 L=1 MF=1 m=1
XC10<8> net10<0> outn sky130_fd_pr__cap_mim_m3_1 W=1 L=1 MF=1 m=1
XC10<7> net10<1> outn sky130_fd_pr__cap_mim_m3_1 W=1 L=1 MF=1 m=1
XC10<6> net10<0> outn sky130_fd_pr__cap_mim_m3_1 W=1 L=1 MF=1 m=1
XC10<5> net10<1> outn sky130_fd_pr__cap_mim_m3_1 W=1 L=1 MF=1 m=1
XC10<4> net10<0> outn sky130_fd_pr__cap_mim_m3_1 W=1 L=1 MF=1 m=1
XC10<3> net10<1> outn sky130_fd_pr__cap_mim_m3_1 W=1 L=1 MF=1 m=1
XC10<2> net10<0> outn sky130_fd_pr__cap_mim_m3_1 W=1 L=1 MF=1 m=1
XC10<1> net10<1> outn sky130_fd_pr__cap_mim_m3_1 W=1 L=1 MF=1 m=1
XC10<0> net10<0> outn sky130_fd_pr__cap_mim_m3_1 W=1 L=1 MF=1 m=1
XM13<1> net9<1> sw<4> net10<1> GND sky130_fd_pr__nfet_01v8_lvt L=0.15 W=4.8 nf=8 ad='int((nf+1)/2) * W/nf * 0.29'
+ as='int((nf+2)/2) * W/nf * 0.29' pd='2*int((nf+1)/2) * (W/nf + 0.29)' ps='2*int((nf+2)/2) * (W/nf + 0.29)'
+ nrd='0.29 / W' nrs='0.29 / W' sa=0 sb=0 sd=0 mult=1 m=1
XM13<0> net9<0> sw<4> net10<0> GND sky130_fd_pr__nfet_01v8_lvt L=0.15 W=4.8 nf=8 ad='int((nf+1)/2) * W/nf * 0.29'
+ as='int((nf+2)/2) * W/nf * 0.29' pd='2*int((nf+1)/2) * (W/nf + 0.29)' ps='2*int((nf+2)/2) * (W/nf + 0.29)'
+ nrd='0.29 / W' nrs='0.29 / W' sa=0 sb=0 sd=0 mult=1 m=1
XM14<2> GND sw<4> net9<1> GND sky130_fd_pr__nfet_01v8_lvt L=0.15 W=1 nf=2 ad='int((nf+1)/2) * W/nf * 0.29'
+ as='int((nf+2)/2) * W/nf * 0.29' pd='2*int((nf+1)/2) * (W/nf + 0.29)' ps='2*int((nf+2)/2) * (W/nf + 0.29)'
+ nrd='0.29 / W' nrs='0.29 / W' sa=0 sb=0 sd=0 mult=1 m=1
XM14<1> GND sw<4> net9<0> GND sky130_fd_pr__nfet_01v8_lvt L=0.15 W=1 nf=2 ad='int((nf+1)/2) * W/nf * 0.29'
+ as='int((nf+2)/2) * W/nf * 0.29' pd='2*int((nf+1)/2) * (W/nf + 0.29)' ps='2*int((nf+2)/2) * (W/nf + 0.29)'
+ nrd='0.29 / W' nrs='0.29 / W' sa=0 sb=0 sd=0 mult=1 m=1
XM14<0> GND sw<4> net9<1> GND sky130_fd_pr__nfet_01v8_lvt L=0.15 W=1 nf=2 ad='int((nf+1)/2) * W/nf * 0.29'
+ as='int((nf+2)/2) * W/nf * 0.29' pd='2*int((nf+1)/2) * (W/nf + 0.29)' ps='2*int((nf+2)/2) * (W/nf + 0.29)'
+ nrd='0.29 / W' nrs='0.29 / W' sa=0 sb=0 sd=0 mult=1 m=1
XM15<2> GND sw<4> net10<1> GND sky130_fd_pr__nfet_01v8_lvt L=0.15 W=1 nf=2 ad='int((nf+1)/2) * W/nf * 0.29'
+ as='int((nf+2)/2) * W/nf * 0.29' pd='2*int((nf+1)/2) * (W/nf + 0.29)' ps='2*int((nf+2)/2) * (W/nf + 0.29)'
+ nrd='0.29 / W' nrs='0.29 / W' sa=0 sb=0 sd=0 mult=1 m=1
XM15<1> GND sw<4> net10<0> GND sky130_fd_pr__nfet_01v8_lvt L=0.15 W=1 nf=2 ad='int((nf+1)/2) * W/nf * 0.29'
+ as='int((nf+2)/2) * W/nf * 0.29' pd='2*int((nf+1)/2) * (W/nf + 0.29)' ps='2*int((nf+2)/2) * (W/nf + 0.29)'
+ nrd='0.29 / W' nrs='0.29 / W' sa=0 sb=0 sd=0 mult=1 m=1
XM15<0> GND sw<4> net10<1> GND sky130_fd_pr__nfet_01v8_lvt L=0.15 W=1 nf=2 ad='int((nf+1)/2) * W/nf * 0.29'
+ as='int((nf+2)/2) * W/nf * 0.29' pd='2*int((nf+1)/2) * (W/nf + 0.29)' ps='2*int((nf+2)/2) * (W/nf + 0.29)'
+ nrd='0.29 / W' nrs='0.29 / W' sa=0 sb=0 sd=0 mult=1 m=1
XC9<127> outp net9<1> sky130_fd_pr__cap_mim_m3_1 W=1 L=1 MF=1 m=1
XC9<126> outp net9<0> sky130_fd_pr__cap_mim_m3_1 W=1 L=1 MF=1 m=1
XC9<125> outp net9<1> sky130_fd_pr__cap_mim_m3_1 W=1 L=1 MF=1 m=1
XC9<124> outp net9<0> sky130_fd_pr__cap_mim_m3_1 W=1 L=1 MF=1 m=1
XC9<123> outp net9<1> sky130_fd_pr__cap_mim_m3_1 W=1 L=1 MF=1 m=1
XC9<122> outp net9<0> sky130_fd_pr__cap_mim_m3_1 W=1 L=1 MF=1 m=1
XC9<121> outp net9<1> sky130_fd_pr__cap_mim_m3_1 W=1 L=1 MF=1 m=1
XC9<120> outp net9<0> sky130_fd_pr__cap_mim_m3_1 W=1 L=1 MF=1 m=1
XC9<119> outp net9<1> sky130_fd_pr__cap_mim_m3_1 W=1 L=1 MF=1 m=1
XC9<118> outp net9<0> sky130_fd_pr__cap_mim_m3_1 W=1 L=1 MF=1 m=1
XC9<117> outp net9<1> sky130_fd_pr__cap_mim_m3_1 W=1 L=1 MF=1 m=1
XC9<116> outp net9<0> sky130_fd_pr__cap_mim_m3_1 W=1 L=1 MF=1 m=1
XC9<115> outp net9<1> sky130_fd_pr__cap_mim_m3_1 W=1 L=1 MF=1 m=1
XC9<114> outp net9<0> sky130_fd_pr__cap_mim_m3_1 W=1 L=1 MF=1 m=1