* NGSPICE file created from diff_pair_sample_1716.ext - technology: sky130A

.subckt diff_pair_sample_1716 VTAIL VN VP B VDD2 VDD1
X0 VTAIL.t7 VP.t0 VDD1.t2 B.t1 sky130_fd_pr__nfet_01v8 ad=7.6713 pd=40.12 as=3.24555 ps=20 w=19.67 l=3.78
X1 VTAIL.t1 VN.t0 VDD2.t3 B.t1 sky130_fd_pr__nfet_01v8 ad=7.6713 pd=40.12 as=3.24555 ps=20 w=19.67 l=3.78
X2 B.t17 B.t15 B.t16 B.t12 sky130_fd_pr__nfet_01v8 ad=7.6713 pd=40.12 as=0 ps=0 w=19.67 l=3.78
X3 B.t14 B.t11 B.t13 B.t12 sky130_fd_pr__nfet_01v8 ad=7.6713 pd=40.12 as=0 ps=0 w=19.67 l=3.78
X4 VTAIL.t6 VP.t1 VDD1.t3 B.t2 sky130_fd_pr__nfet_01v8 ad=7.6713 pd=40.12 as=3.24555 ps=20 w=19.67 l=3.78
X5 VTAIL.t2 VN.t1 VDD2.t2 B.t2 sky130_fd_pr__nfet_01v8 ad=7.6713 pd=40.12 as=3.24555 ps=20 w=19.67 l=3.78
X6 B.t10 B.t8 B.t9 B.t5 sky130_fd_pr__nfet_01v8 ad=7.6713 pd=40.12 as=0 ps=0 w=19.67 l=3.78
X7 VDD2.t1 VN.t2 VTAIL.t3 B.t3 sky130_fd_pr__nfet_01v8 ad=3.24555 pd=20 as=7.6713 ps=40.12 w=19.67 l=3.78
X8 VDD1.t1 VP.t2 VTAIL.t5 B.t3 sky130_fd_pr__nfet_01v8 ad=3.24555 pd=20 as=7.6713 ps=40.12 w=19.67 l=3.78
X9 VDD1.t0 VP.t3 VTAIL.t4 B.t0 sky130_fd_pr__nfet_01v8 ad=3.24555 pd=20 as=7.6713 ps=40.12 w=19.67 l=3.78
X10 B.t7 B.t4 B.t6 B.t5 sky130_fd_pr__nfet_01v8 ad=7.6713 pd=40.12 as=0 ps=0 w=19.67 l=3.78
X11 VDD2.t0 VN.t3 VTAIL.t0 B.t0 sky130_fd_pr__nfet_01v8 ad=3.24555 pd=20 as=7.6713 ps=40.12 w=19.67 l=3.78
R0 VP.n21 VP.n20 161.3
R1 VP.n19 VP.n1 161.3
R2 VP.n18 VP.n17 161.3
R3 VP.n16 VP.n2 161.3
R4 VP.n15 VP.n14 161.3
R5 VP.n13 VP.n3 161.3
R6 VP.n12 VP.n11 161.3
R7 VP.n10 VP.n4 161.3
R8 VP.n9 VP.n8 161.3
R9 VP.n5 VP.t1 159.225
R10 VP.n5 VP.t3 157.88
R11 VP.n7 VP.t0 125.409
R12 VP.n0 VP.t2 125.409
R13 VP.n7 VP.n6 87.376
R14 VP.n22 VP.n0 87.376
R15 VP.n6 VP.n5 57.6509
R16 VP.n14 VP.n13 40.4934
R17 VP.n14 VP.n2 40.4934
R18 VP.n8 VP.n4 24.4675
R19 VP.n12 VP.n4 24.4675
R20 VP.n13 VP.n12 24.4675
R21 VP.n18 VP.n2 24.4675
R22 VP.n19 VP.n18 24.4675
R23 VP.n20 VP.n19 24.4675
R24 VP.n8 VP.n7 2.69187
R25 VP.n20 VP.n0 2.69187
R26 VP.n9 VP.n6 0.354971
R27 VP.n22 VP.n21 0.354971
R28 VP VP.n22 0.26696
R29 VP.n10 VP.n9 0.189894
R30 VP.n11 VP.n10 0.189894
R31 VP.n11 VP.n3 0.189894
R32 VP.n15 VP.n3 0.189894
R33 VP.n16 VP.n15 0.189894
R34 VP.n17 VP.n16 0.189894
R35 VP.n17 VP.n1 0.189894
R36 VP.n21 VP.n1 0.189894
R37 VDD1 VDD1.n1 112.234
R38 VDD1 VDD1.n0 60.4662
R39 VDD1.n0 VDD1.t3 1.00711
R40 VDD1.n0 VDD1.t0 1.00711
R41 VDD1.n1 VDD1.t2 1.00711
R42 VDD1.n1 VDD1.t1 1.00711
R43 VTAIL.n874 VTAIL.n770 289.615
R44 VTAIL.n104 VTAIL.n0 289.615
R45 VTAIL.n214 VTAIL.n110 289.615
R46 VTAIL.n324 VTAIL.n220 289.615
R47 VTAIL.n764 VTAIL.n660 289.615
R48 VTAIL.n654 VTAIL.n550 289.615
R49 VTAIL.n544 VTAIL.n440 289.615
R50 VTAIL.n434 VTAIL.n330 289.615
R51 VTAIL.n807 VTAIL.n806 185
R52 VTAIL.n809 VTAIL.n808 185
R53 VTAIL.n802 VTAIL.n801 185
R54 VTAIL.n815 VTAIL.n814 185
R55 VTAIL.n817 VTAIL.n816 185
R56 VTAIL.n798 VTAIL.n797 185
R57 VTAIL.n823 VTAIL.n822 185
R58 VTAIL.n825 VTAIL.n824 185
R59 VTAIL.n794 VTAIL.n793 185
R60 VTAIL.n831 VTAIL.n830 185
R61 VTAIL.n833 VTAIL.n832 185
R62 VTAIL.n790 VTAIL.n789 185
R63 VTAIL.n839 VTAIL.n838 185
R64 VTAIL.n841 VTAIL.n840 185
R65 VTAIL.n786 VTAIL.n785 185
R66 VTAIL.n848 VTAIL.n847 185
R67 VTAIL.n849 VTAIL.n784 185
R68 VTAIL.n851 VTAIL.n850 185
R69 VTAIL.n782 VTAIL.n781 185
R70 VTAIL.n857 VTAIL.n856 185
R71 VTAIL.n859 VTAIL.n858 185
R72 VTAIL.n778 VTAIL.n777 185
R73 VTAIL.n865 VTAIL.n864 185
R74 VTAIL.n867 VTAIL.n866 185
R75 VTAIL.n774 VTAIL.n773 185
R76 VTAIL.n873 VTAIL.n872 185
R77 VTAIL.n875 VTAIL.n874 185
R78 VTAIL.n37 VTAIL.n36 185
R79 VTAIL.n39 VTAIL.n38 185
R80 VTAIL.n32 VTAIL.n31 185
R81 VTAIL.n45 VTAIL.n44 185
R82 VTAIL.n47 VTAIL.n46 185
R83 VTAIL.n28 VTAIL.n27 185
R84 VTAIL.n53 VTAIL.n52 185
R85 VTAIL.n55 VTAIL.n54 185
R86 VTAIL.n24 VTAIL.n23 185
R87 VTAIL.n61 VTAIL.n60 185
R88 VTAIL.n63 VTAIL.n62 185
R89 VTAIL.n20 VTAIL.n19 185
R90 VTAIL.n69 VTAIL.n68 185
R91 VTAIL.n71 VTAIL.n70 185
R92 VTAIL.n16 VTAIL.n15 185
R93 VTAIL.n78 VTAIL.n77 185
R94 VTAIL.n79 VTAIL.n14 185
R95 VTAIL.n81 VTAIL.n80 185
R96 VTAIL.n12 VTAIL.n11 185
R97 VTAIL.n87 VTAIL.n86 185
R98 VTAIL.n89 VTAIL.n88 185
R99 VTAIL.n8 VTAIL.n7 185
R100 VTAIL.n95 VTAIL.n94 185
R101 VTAIL.n97 VTAIL.n96 185
R102 VTAIL.n4 VTAIL.n3 185
R103 VTAIL.n103 VTAIL.n102 185
R104 VTAIL.n105 VTAIL.n104 185
R105 VTAIL.n147 VTAIL.n146 185
R106 VTAIL.n149 VTAIL.n148 185
R107 VTAIL.n142 VTAIL.n141 185
R108 VTAIL.n155 VTAIL.n154 185
R109 VTAIL.n157 VTAIL.n156 185
R110 VTAIL.n138 VTAIL.n137 185
R111 VTAIL.n163 VTAIL.n162 185
R112 VTAIL.n165 VTAIL.n164 185
R113 VTAIL.n134 VTAIL.n133 185
R114 VTAIL.n171 VTAIL.n170 185
R115 VTAIL.n173 VTAIL.n172 185
R116 VTAIL.n130 VTAIL.n129 185
R117 VTAIL.n179 VTAIL.n178 185
R118 VTAIL.n181 VTAIL.n180 185
R119 VTAIL.n126 VTAIL.n125 185
R120 VTAIL.n188 VTAIL.n187 185
R121 VTAIL.n189 VTAIL.n124 185
R122 VTAIL.n191 VTAIL.n190 185
R123 VTAIL.n122 VTAIL.n121 185
R124 VTAIL.n197 VTAIL.n196 185
R125 VTAIL.n199 VTAIL.n198 185
R126 VTAIL.n118 VTAIL.n117 185
R127 VTAIL.n205 VTAIL.n204 185
R128 VTAIL.n207 VTAIL.n206 185
R129 VTAIL.n114 VTAIL.n113 185
R130 VTAIL.n213 VTAIL.n212 185
R131 VTAIL.n215 VTAIL.n214 185
R132 VTAIL.n257 VTAIL.n256 185
R133 VTAIL.n259 VTAIL.n258 185
R134 VTAIL.n252 VTAIL.n251 185
R135 VTAIL.n265 VTAIL.n264 185
R136 VTAIL.n267 VTAIL.n266 185
R137 VTAIL.n248 VTAIL.n247 185
R138 VTAIL.n273 VTAIL.n272 185
R139 VTAIL.n275 VTAIL.n274 185
R140 VTAIL.n244 VTAIL.n243 185
R141 VTAIL.n281 VTAIL.n280 185
R142 VTAIL.n283 VTAIL.n282 185
R143 VTAIL.n240 VTAIL.n239 185
R144 VTAIL.n289 VTAIL.n288 185
R145 VTAIL.n291 VTAIL.n290 185
R146 VTAIL.n236 VTAIL.n235 185
R147 VTAIL.n298 VTAIL.n297 185
R148 VTAIL.n299 VTAIL.n234 185
R149 VTAIL.n301 VTAIL.n300 185
R150 VTAIL.n232 VTAIL.n231 185
R151 VTAIL.n307 VTAIL.n306 185
R152 VTAIL.n309 VTAIL.n308 185
R153 VTAIL.n228 VTAIL.n227 185
R154 VTAIL.n315 VTAIL.n314 185
R155 VTAIL.n317 VTAIL.n316 185
R156 VTAIL.n224 VTAIL.n223 185
R157 VTAIL.n323 VTAIL.n322 185
R158 VTAIL.n325 VTAIL.n324 185
R159 VTAIL.n765 VTAIL.n764 185
R160 VTAIL.n763 VTAIL.n762 185
R161 VTAIL.n664 VTAIL.n663 185
R162 VTAIL.n757 VTAIL.n756 185
R163 VTAIL.n755 VTAIL.n754 185
R164 VTAIL.n668 VTAIL.n667 185
R165 VTAIL.n749 VTAIL.n748 185
R166 VTAIL.n747 VTAIL.n746 185
R167 VTAIL.n672 VTAIL.n671 185
R168 VTAIL.n676 VTAIL.n674 185
R169 VTAIL.n741 VTAIL.n740 185
R170 VTAIL.n739 VTAIL.n738 185
R171 VTAIL.n678 VTAIL.n677 185
R172 VTAIL.n733 VTAIL.n732 185
R173 VTAIL.n731 VTAIL.n730 185
R174 VTAIL.n682 VTAIL.n681 185
R175 VTAIL.n725 VTAIL.n724 185
R176 VTAIL.n723 VTAIL.n722 185
R177 VTAIL.n686 VTAIL.n685 185
R178 VTAIL.n717 VTAIL.n716 185
R179 VTAIL.n715 VTAIL.n714 185
R180 VTAIL.n690 VTAIL.n689 185
R181 VTAIL.n709 VTAIL.n708 185
R182 VTAIL.n707 VTAIL.n706 185
R183 VTAIL.n694 VTAIL.n693 185
R184 VTAIL.n701 VTAIL.n700 185
R185 VTAIL.n699 VTAIL.n698 185
R186 VTAIL.n655 VTAIL.n654 185
R187 VTAIL.n653 VTAIL.n652 185
R188 VTAIL.n554 VTAIL.n553 185
R189 VTAIL.n647 VTAIL.n646 185
R190 VTAIL.n645 VTAIL.n644 185
R191 VTAIL.n558 VTAIL.n557 185
R192 VTAIL.n639 VTAIL.n638 185
R193 VTAIL.n637 VTAIL.n636 185
R194 VTAIL.n562 VTAIL.n561 185
R195 VTAIL.n566 VTAIL.n564 185
R196 VTAIL.n631 VTAIL.n630 185
R197 VTAIL.n629 VTAIL.n628 185
R198 VTAIL.n568 VTAIL.n567 185
R199 VTAIL.n623 VTAIL.n622 185
R200 VTAIL.n621 VTAIL.n620 185
R201 VTAIL.n572 VTAIL.n571 185
R202 VTAIL.n615 VTAIL.n614 185
R203 VTAIL.n613 VTAIL.n612 185
R204 VTAIL.n576 VTAIL.n575 185
R205 VTAIL.n607 VTAIL.n606 185
R206 VTAIL.n605 VTAIL.n604 185
R207 VTAIL.n580 VTAIL.n579 185
R208 VTAIL.n599 VTAIL.n598 185
R209 VTAIL.n597 VTAIL.n596 185
R210 VTAIL.n584 VTAIL.n583 185
R211 VTAIL.n591 VTAIL.n590 185
R212 VTAIL.n589 VTAIL.n588 185
R213 VTAIL.n545 VTAIL.n544 185
R214 VTAIL.n543 VTAIL.n542 185
R215 VTAIL.n444 VTAIL.n443 185
R216 VTAIL.n537 VTAIL.n536 185
R217 VTAIL.n535 VTAIL.n534 185
R218 VTAIL.n448 VTAIL.n447 185
R219 VTAIL.n529 VTAIL.n528 185
R220 VTAIL.n527 VTAIL.n526 185
R221 VTAIL.n452 VTAIL.n451 185
R222 VTAIL.n456 VTAIL.n454 185
R223 VTAIL.n521 VTAIL.n520 185
R224 VTAIL.n519 VTAIL.n518 185
R225 VTAIL.n458 VTAIL.n457 185
R226 VTAIL.n513 VTAIL.n512 185
R227 VTAIL.n511 VTAIL.n510 185
R228 VTAIL.n462 VTAIL.n461 185
R229 VTAIL.n505 VTAIL.n504 185
R230 VTAIL.n503 VTAIL.n502 185
R231 VTAIL.n466 VTAIL.n465 185
R232 VTAIL.n497 VTAIL.n496 185
R233 VTAIL.n495 VTAIL.n494 185
R234 VTAIL.n470 VTAIL.n469 185
R235 VTAIL.n489 VTAIL.n488 185
R236 VTAIL.n487 VTAIL.n486 185
R237 VTAIL.n474 VTAIL.n473 185
R238 VTAIL.n481 VTAIL.n480 185
R239 VTAIL.n479 VTAIL.n478 185
R240 VTAIL.n435 VTAIL.n434 185
R241 VTAIL.n433 VTAIL.n432 185
R242 VTAIL.n334 VTAIL.n333 185
R243 VTAIL.n427 VTAIL.n426 185
R244 VTAIL.n425 VTAIL.n424 185
R245 VTAIL.n338 VTAIL.n337 185
R246 VTAIL.n419 VTAIL.n418 185
R247 VTAIL.n417 VTAIL.n416 185
R248 VTAIL.n342 VTAIL.n341 185
R249 VTAIL.n346 VTAIL.n344 185
R250 VTAIL.n411 VTAIL.n410 185
R251 VTAIL.n409 VTAIL.n408 185
R252 VTAIL.n348 VTAIL.n347 185
R253 VTAIL.n403 VTAIL.n402 185
R254 VTAIL.n401 VTAIL.n400 185
R255 VTAIL.n352 VTAIL.n351 185
R256 VTAIL.n395 VTAIL.n394 185
R257 VTAIL.n393 VTAIL.n392 185
R258 VTAIL.n356 VTAIL.n355 185
R259 VTAIL.n387 VTAIL.n386 185
R260 VTAIL.n385 VTAIL.n384 185
R261 VTAIL.n360 VTAIL.n359 185
R262 VTAIL.n379 VTAIL.n378 185
R263 VTAIL.n377 VTAIL.n376 185
R264 VTAIL.n364 VTAIL.n363 185
R265 VTAIL.n371 VTAIL.n370 185
R266 VTAIL.n369 VTAIL.n368 185
R267 VTAIL.n805 VTAIL.t0 147.659
R268 VTAIL.n35 VTAIL.t2 147.659
R269 VTAIL.n145 VTAIL.t5 147.659
R270 VTAIL.n255 VTAIL.t7 147.659
R271 VTAIL.n697 VTAIL.t4 147.659
R272 VTAIL.n587 VTAIL.t6 147.659
R273 VTAIL.n477 VTAIL.t3 147.659
R274 VTAIL.n367 VTAIL.t1 147.659
R275 VTAIL.n808 VTAIL.n807 104.615
R276 VTAIL.n808 VTAIL.n801 104.615
R277 VTAIL.n815 VTAIL.n801 104.615
R278 VTAIL.n816 VTAIL.n815 104.615
R279 VTAIL.n816 VTAIL.n797 104.615
R280 VTAIL.n823 VTAIL.n797 104.615
R281 VTAIL.n824 VTAIL.n823 104.615
R282 VTAIL.n824 VTAIL.n793 104.615
R283 VTAIL.n831 VTAIL.n793 104.615
R284 VTAIL.n832 VTAIL.n831 104.615
R285 VTAIL.n832 VTAIL.n789 104.615
R286 VTAIL.n839 VTAIL.n789 104.615
R287 VTAIL.n840 VTAIL.n839 104.615
R288 VTAIL.n840 VTAIL.n785 104.615
R289 VTAIL.n848 VTAIL.n785 104.615
R290 VTAIL.n849 VTAIL.n848 104.615
R291 VTAIL.n850 VTAIL.n849 104.615
R292 VTAIL.n850 VTAIL.n781 104.615
R293 VTAIL.n857 VTAIL.n781 104.615
R294 VTAIL.n858 VTAIL.n857 104.615
R295 VTAIL.n858 VTAIL.n777 104.615
R296 VTAIL.n865 VTAIL.n777 104.615
R297 VTAIL.n866 VTAIL.n865 104.615
R298 VTAIL.n866 VTAIL.n773 104.615
R299 VTAIL.n873 VTAIL.n773 104.615
R300 VTAIL.n874 VTAIL.n873 104.615
R301 VTAIL.n38 VTAIL.n37 104.615
R302 VTAIL.n38 VTAIL.n31 104.615
R303 VTAIL.n45 VTAIL.n31 104.615
R304 VTAIL.n46 VTAIL.n45 104.615
R305 VTAIL.n46 VTAIL.n27 104.615
R306 VTAIL.n53 VTAIL.n27 104.615
R307 VTAIL.n54 VTAIL.n53 104.615
R308 VTAIL.n54 VTAIL.n23 104.615
R309 VTAIL.n61 VTAIL.n23 104.615
R310 VTAIL.n62 VTAIL.n61 104.615
R311 VTAIL.n62 VTAIL.n19 104.615
R312 VTAIL.n69 VTAIL.n19 104.615
R313 VTAIL.n70 VTAIL.n69 104.615
R314 VTAIL.n70 VTAIL.n15 104.615
R315 VTAIL.n78 VTAIL.n15 104.615
R316 VTAIL.n79 VTAIL.n78 104.615
R317 VTAIL.n80 VTAIL.n79 104.615
R318 VTAIL.n80 VTAIL.n11 104.615
R319 VTAIL.n87 VTAIL.n11 104.615
R320 VTAIL.n88 VTAIL.n87 104.615
R321 VTAIL.n88 VTAIL.n7 104.615
R322 VTAIL.n95 VTAIL.n7 104.615
R323 VTAIL.n96 VTAIL.n95 104.615
R324 VTAIL.n96 VTAIL.n3 104.615
R325 VTAIL.n103 VTAIL.n3 104.615
R326 VTAIL.n104 VTAIL.n103 104.615
R327 VTAIL.n148 VTAIL.n147 104.615
R328 VTAIL.n148 VTAIL.n141 104.615
R329 VTAIL.n155 VTAIL.n141 104.615
R330 VTAIL.n156 VTAIL.n155 104.615
R331 VTAIL.n156 VTAIL.n137 104.615
R332 VTAIL.n163 VTAIL.n137 104.615
R333 VTAIL.n164 VTAIL.n163 104.615
R334 VTAIL.n164 VTAIL.n133 104.615
R335 VTAIL.n171 VTAIL.n133 104.615
R336 VTAIL.n172 VTAIL.n171 104.615
R337 VTAIL.n172 VTAIL.n129 104.615
R338 VTAIL.n179 VTAIL.n129 104.615
R339 VTAIL.n180 VTAIL.n179 104.615
R340 VTAIL.n180 VTAIL.n125 104.615
R341 VTAIL.n188 VTAIL.n125 104.615
R342 VTAIL.n189 VTAIL.n188 104.615
R343 VTAIL.n190 VTAIL.n189 104.615
R344 VTAIL.n190 VTAIL.n121 104.615
R345 VTAIL.n197 VTAIL.n121 104.615
R346 VTAIL.n198 VTAIL.n197 104.615
R347 VTAIL.n198 VTAIL.n117 104.615
R348 VTAIL.n205 VTAIL.n117 104.615
R349 VTAIL.n206 VTAIL.n205 104.615
R350 VTAIL.n206 VTAIL.n113 104.615
R351 VTAIL.n213 VTAIL.n113 104.615
R352 VTAIL.n214 VTAIL.n213 104.615
R353 VTAIL.n258 VTAIL.n257 104.615
R354 VTAIL.n258 VTAIL.n251 104.615
R355 VTAIL.n265 VTAIL.n251 104.615
R356 VTAIL.n266 VTAIL.n265 104.615
R357 VTAIL.n266 VTAIL.n247 104.615
R358 VTAIL.n273 VTAIL.n247 104.615
R359 VTAIL.n274 VTAIL.n273 104.615
R360 VTAIL.n274 VTAIL.n243 104.615
R361 VTAIL.n281 VTAIL.n243 104.615
R362 VTAIL.n282 VTAIL.n281 104.615
R363 VTAIL.n282 VTAIL.n239 104.615
R364 VTAIL.n289 VTAIL.n239 104.615
R365 VTAIL.n290 VTAIL.n289 104.615
R366 VTAIL.n290 VTAIL.n235 104.615
R367 VTAIL.n298 VTAIL.n235 104.615
R368 VTAIL.n299 VTAIL.n298 104.615
R369 VTAIL.n300 VTAIL.n299 104.615
R370 VTAIL.n300 VTAIL.n231 104.615
R371 VTAIL.n307 VTAIL.n231 104.615
R372 VTAIL.n308 VTAIL.n307 104.615
R373 VTAIL.n308 VTAIL.n227 104.615
R374 VTAIL.n315 VTAIL.n227 104.615
R375 VTAIL.n316 VTAIL.n315 104.615
R376 VTAIL.n316 VTAIL.n223 104.615
R377 VTAIL.n323 VTAIL.n223 104.615
R378 VTAIL.n324 VTAIL.n323 104.615
R379 VTAIL.n764 VTAIL.n763 104.615
R380 VTAIL.n763 VTAIL.n663 104.615
R381 VTAIL.n756 VTAIL.n663 104.615
R382 VTAIL.n756 VTAIL.n755 104.615
R383 VTAIL.n755 VTAIL.n667 104.615
R384 VTAIL.n748 VTAIL.n667 104.615
R385 VTAIL.n748 VTAIL.n747 104.615
R386 VTAIL.n747 VTAIL.n671 104.615
R387 VTAIL.n676 VTAIL.n671 104.615
R388 VTAIL.n740 VTAIL.n676 104.615
R389 VTAIL.n740 VTAIL.n739 104.615
R390 VTAIL.n739 VTAIL.n677 104.615
R391 VTAIL.n732 VTAIL.n677 104.615
R392 VTAIL.n732 VTAIL.n731 104.615
R393 VTAIL.n731 VTAIL.n681 104.615
R394 VTAIL.n724 VTAIL.n681 104.615
R395 VTAIL.n724 VTAIL.n723 104.615
R396 VTAIL.n723 VTAIL.n685 104.615
R397 VTAIL.n716 VTAIL.n685 104.615
R398 VTAIL.n716 VTAIL.n715 104.615
R399 VTAIL.n715 VTAIL.n689 104.615
R400 VTAIL.n708 VTAIL.n689 104.615
R401 VTAIL.n708 VTAIL.n707 104.615
R402 VTAIL.n707 VTAIL.n693 104.615
R403 VTAIL.n700 VTAIL.n693 104.615
R404 VTAIL.n700 VTAIL.n699 104.615
R405 VTAIL.n654 VTAIL.n653 104.615
R406 VTAIL.n653 VTAIL.n553 104.615
R407 VTAIL.n646 VTAIL.n553 104.615
R408 VTAIL.n646 VTAIL.n645 104.615
R409 VTAIL.n645 VTAIL.n557 104.615
R410 VTAIL.n638 VTAIL.n557 104.615
R411 VTAIL.n638 VTAIL.n637 104.615
R412 VTAIL.n637 VTAIL.n561 104.615
R413 VTAIL.n566 VTAIL.n561 104.615
R414 VTAIL.n630 VTAIL.n566 104.615
R415 VTAIL.n630 VTAIL.n629 104.615
R416 VTAIL.n629 VTAIL.n567 104.615
R417 VTAIL.n622 VTAIL.n567 104.615
R418 VTAIL.n622 VTAIL.n621 104.615
R419 VTAIL.n621 VTAIL.n571 104.615
R420 VTAIL.n614 VTAIL.n571 104.615
R421 VTAIL.n614 VTAIL.n613 104.615
R422 VTAIL.n613 VTAIL.n575 104.615
R423 VTAIL.n606 VTAIL.n575 104.615
R424 VTAIL.n606 VTAIL.n605 104.615
R425 VTAIL.n605 VTAIL.n579 104.615
R426 VTAIL.n598 VTAIL.n579 104.615
R427 VTAIL.n598 VTAIL.n597 104.615
R428 VTAIL.n597 VTAIL.n583 104.615
R429 VTAIL.n590 VTAIL.n583 104.615
R430 VTAIL.n590 VTAIL.n589 104.615
R431 VTAIL.n544 VTAIL.n543 104.615
R432 VTAIL.n543 VTAIL.n443 104.615
R433 VTAIL.n536 VTAIL.n443 104.615
R434 VTAIL.n536 VTAIL.n535 104.615
R435 VTAIL.n535 VTAIL.n447 104.615
R436 VTAIL.n528 VTAIL.n447 104.615
R437 VTAIL.n528 VTAIL.n527 104.615
R438 VTAIL.n527 VTAIL.n451 104.615
R439 VTAIL.n456 VTAIL.n451 104.615
R440 VTAIL.n520 VTAIL.n456 104.615
R441 VTAIL.n520 VTAIL.n519 104.615
R442 VTAIL.n519 VTAIL.n457 104.615
R443 VTAIL.n512 VTAIL.n457 104.615
R444 VTAIL.n512 VTAIL.n511 104.615
R445 VTAIL.n511 VTAIL.n461 104.615
R446 VTAIL.n504 VTAIL.n461 104.615
R447 VTAIL.n504 VTAIL.n503 104.615
R448 VTAIL.n503 VTAIL.n465 104.615
R449 VTAIL.n496 VTAIL.n465 104.615
R450 VTAIL.n496 VTAIL.n495 104.615
R451 VTAIL.n495 VTAIL.n469 104.615
R452 VTAIL.n488 VTAIL.n469 104.615
R453 VTAIL.n488 VTAIL.n487 104.615
R454 VTAIL.n487 VTAIL.n473 104.615
R455 VTAIL.n480 VTAIL.n473 104.615
R456 VTAIL.n480 VTAIL.n479 104.615
R457 VTAIL.n434 VTAIL.n433 104.615
R458 VTAIL.n433 VTAIL.n333 104.615
R459 VTAIL.n426 VTAIL.n333 104.615
R460 VTAIL.n426 VTAIL.n425 104.615
R461 VTAIL.n425 VTAIL.n337 104.615
R462 VTAIL.n418 VTAIL.n337 104.615
R463 VTAIL.n418 VTAIL.n417 104.615
R464 VTAIL.n417 VTAIL.n341 104.615
R465 VTAIL.n346 VTAIL.n341 104.615
R466 VTAIL.n410 VTAIL.n346 104.615
R467 VTAIL.n410 VTAIL.n409 104.615
R468 VTAIL.n409 VTAIL.n347 104.615
R469 VTAIL.n402 VTAIL.n347 104.615
R470 VTAIL.n402 VTAIL.n401 104.615
R471 VTAIL.n401 VTAIL.n351 104.615
R472 VTAIL.n394 VTAIL.n351 104.615
R473 VTAIL.n394 VTAIL.n393 104.615
R474 VTAIL.n393 VTAIL.n355 104.615
R475 VTAIL.n386 VTAIL.n355 104.615
R476 VTAIL.n386 VTAIL.n385 104.615
R477 VTAIL.n385 VTAIL.n359 104.615
R478 VTAIL.n378 VTAIL.n359 104.615
R479 VTAIL.n378 VTAIL.n377 104.615
R480 VTAIL.n377 VTAIL.n363 104.615
R481 VTAIL.n370 VTAIL.n363 104.615
R482 VTAIL.n370 VTAIL.n369 104.615
R483 VTAIL.n807 VTAIL.t0 52.3082
R484 VTAIL.n37 VTAIL.t2 52.3082
R485 VTAIL.n147 VTAIL.t5 52.3082
R486 VTAIL.n257 VTAIL.t7 52.3082
R487 VTAIL.n699 VTAIL.t4 52.3082
R488 VTAIL.n589 VTAIL.t6 52.3082
R489 VTAIL.n479 VTAIL.t3 52.3082
R490 VTAIL.n369 VTAIL.t1 52.3082
R491 VTAIL.n879 VTAIL.n769 32.8669
R492 VTAIL.n439 VTAIL.n329 32.8669
R493 VTAIL.n879 VTAIL.n878 31.9914
R494 VTAIL.n109 VTAIL.n108 31.9914
R495 VTAIL.n219 VTAIL.n218 31.9914
R496 VTAIL.n329 VTAIL.n328 31.9914
R497 VTAIL.n769 VTAIL.n768 31.9914
R498 VTAIL.n659 VTAIL.n658 31.9914
R499 VTAIL.n549 VTAIL.n548 31.9914
R500 VTAIL.n439 VTAIL.n438 31.9914
R501 VTAIL.n806 VTAIL.n805 15.6677
R502 VTAIL.n36 VTAIL.n35 15.6677
R503 VTAIL.n146 VTAIL.n145 15.6677
R504 VTAIL.n256 VTAIL.n255 15.6677
R505 VTAIL.n698 VTAIL.n697 15.6677
R506 VTAIL.n588 VTAIL.n587 15.6677
R507 VTAIL.n478 VTAIL.n477 15.6677
R508 VTAIL.n368 VTAIL.n367 15.6677
R509 VTAIL.n851 VTAIL.n782 13.1884
R510 VTAIL.n81 VTAIL.n12 13.1884
R511 VTAIL.n191 VTAIL.n122 13.1884
R512 VTAIL.n301 VTAIL.n232 13.1884
R513 VTAIL.n674 VTAIL.n672 13.1884
R514 VTAIL.n564 VTAIL.n562 13.1884
R515 VTAIL.n454 VTAIL.n452 13.1884
R516 VTAIL.n344 VTAIL.n342 13.1884
R517 VTAIL.n809 VTAIL.n804 12.8005
R518 VTAIL.n852 VTAIL.n784 12.8005
R519 VTAIL.n856 VTAIL.n855 12.8005
R520 VTAIL.n39 VTAIL.n34 12.8005
R521 VTAIL.n82 VTAIL.n14 12.8005
R522 VTAIL.n86 VTAIL.n85 12.8005
R523 VTAIL.n149 VTAIL.n144 12.8005
R524 VTAIL.n192 VTAIL.n124 12.8005
R525 VTAIL.n196 VTAIL.n195 12.8005
R526 VTAIL.n259 VTAIL.n254 12.8005
R527 VTAIL.n302 VTAIL.n234 12.8005
R528 VTAIL.n306 VTAIL.n305 12.8005
R529 VTAIL.n746 VTAIL.n745 12.8005
R530 VTAIL.n742 VTAIL.n741 12.8005
R531 VTAIL.n701 VTAIL.n696 12.8005
R532 VTAIL.n636 VTAIL.n635 12.8005
R533 VTAIL.n632 VTAIL.n631 12.8005
R534 VTAIL.n591 VTAIL.n586 12.8005
R535 VTAIL.n526 VTAIL.n525 12.8005
R536 VTAIL.n522 VTAIL.n521 12.8005
R537 VTAIL.n481 VTAIL.n476 12.8005
R538 VTAIL.n416 VTAIL.n415 12.8005
R539 VTAIL.n412 VTAIL.n411 12.8005
R540 VTAIL.n371 VTAIL.n366 12.8005
R541 VTAIL.n810 VTAIL.n802 12.0247
R542 VTAIL.n847 VTAIL.n846 12.0247
R543 VTAIL.n859 VTAIL.n780 12.0247
R544 VTAIL.n40 VTAIL.n32 12.0247
R545 VTAIL.n77 VTAIL.n76 12.0247
R546 VTAIL.n89 VTAIL.n10 12.0247
R547 VTAIL.n150 VTAIL.n142 12.0247
R548 VTAIL.n187 VTAIL.n186 12.0247
R549 VTAIL.n199 VTAIL.n120 12.0247
R550 VTAIL.n260 VTAIL.n252 12.0247
R551 VTAIL.n297 VTAIL.n296 12.0247
R552 VTAIL.n309 VTAIL.n230 12.0247
R553 VTAIL.n749 VTAIL.n670 12.0247
R554 VTAIL.n738 VTAIL.n675 12.0247
R555 VTAIL.n702 VTAIL.n694 12.0247
R556 VTAIL.n639 VTAIL.n560 12.0247
R557 VTAIL.n628 VTAIL.n565 12.0247
R558 VTAIL.n592 VTAIL.n584 12.0247
R559 VTAIL.n529 VTAIL.n450 12.0247
R560 VTAIL.n518 VTAIL.n455 12.0247
R561 VTAIL.n482 VTAIL.n474 12.0247
R562 VTAIL.n419 VTAIL.n340 12.0247
R563 VTAIL.n408 VTAIL.n345 12.0247
R564 VTAIL.n372 VTAIL.n364 12.0247
R565 VTAIL.n814 VTAIL.n813 11.249
R566 VTAIL.n845 VTAIL.n786 11.249
R567 VTAIL.n860 VTAIL.n778 11.249
R568 VTAIL.n44 VTAIL.n43 11.249
R569 VTAIL.n75 VTAIL.n16 11.249
R570 VTAIL.n90 VTAIL.n8 11.249
R571 VTAIL.n154 VTAIL.n153 11.249
R572 VTAIL.n185 VTAIL.n126 11.249
R573 VTAIL.n200 VTAIL.n118 11.249
R574 VTAIL.n264 VTAIL.n263 11.249
R575 VTAIL.n295 VTAIL.n236 11.249
R576 VTAIL.n310 VTAIL.n228 11.249
R577 VTAIL.n750 VTAIL.n668 11.249
R578 VTAIL.n737 VTAIL.n678 11.249
R579 VTAIL.n706 VTAIL.n705 11.249
R580 VTAIL.n640 VTAIL.n558 11.249
R581 VTAIL.n627 VTAIL.n568 11.249
R582 VTAIL.n596 VTAIL.n595 11.249
R583 VTAIL.n530 VTAIL.n448 11.249
R584 VTAIL.n517 VTAIL.n458 11.249
R585 VTAIL.n486 VTAIL.n485 11.249
R586 VTAIL.n420 VTAIL.n338 11.249
R587 VTAIL.n407 VTAIL.n348 11.249
R588 VTAIL.n376 VTAIL.n375 11.249
R589 VTAIL.n817 VTAIL.n800 10.4732
R590 VTAIL.n842 VTAIL.n841 10.4732
R591 VTAIL.n864 VTAIL.n863 10.4732
R592 VTAIL.n47 VTAIL.n30 10.4732
R593 VTAIL.n72 VTAIL.n71 10.4732
R594 VTAIL.n94 VTAIL.n93 10.4732
R595 VTAIL.n157 VTAIL.n140 10.4732
R596 VTAIL.n182 VTAIL.n181 10.4732
R597 VTAIL.n204 VTAIL.n203 10.4732
R598 VTAIL.n267 VTAIL.n250 10.4732
R599 VTAIL.n292 VTAIL.n291 10.4732
R600 VTAIL.n314 VTAIL.n313 10.4732
R601 VTAIL.n754 VTAIL.n753 10.4732
R602 VTAIL.n734 VTAIL.n733 10.4732
R603 VTAIL.n709 VTAIL.n692 10.4732
R604 VTAIL.n644 VTAIL.n643 10.4732
R605 VTAIL.n624 VTAIL.n623 10.4732
R606 VTAIL.n599 VTAIL.n582 10.4732
R607 VTAIL.n534 VTAIL.n533 10.4732
R608 VTAIL.n514 VTAIL.n513 10.4732
R609 VTAIL.n489 VTAIL.n472 10.4732
R610 VTAIL.n424 VTAIL.n423 10.4732
R611 VTAIL.n404 VTAIL.n403 10.4732
R612 VTAIL.n379 VTAIL.n362 10.4732
R613 VTAIL.n818 VTAIL.n798 9.69747
R614 VTAIL.n838 VTAIL.n788 9.69747
R615 VTAIL.n867 VTAIL.n776 9.69747
R616 VTAIL.n48 VTAIL.n28 9.69747
R617 VTAIL.n68 VTAIL.n18 9.69747
R618 VTAIL.n97 VTAIL.n6 9.69747
R619 VTAIL.n158 VTAIL.n138 9.69747
R620 VTAIL.n178 VTAIL.n128 9.69747
R621 VTAIL.n207 VTAIL.n116 9.69747
R622 VTAIL.n268 VTAIL.n248 9.69747
R623 VTAIL.n288 VTAIL.n238 9.69747
R624 VTAIL.n317 VTAIL.n226 9.69747
R625 VTAIL.n757 VTAIL.n666 9.69747
R626 VTAIL.n730 VTAIL.n680 9.69747
R627 VTAIL.n710 VTAIL.n690 9.69747
R628 VTAIL.n647 VTAIL.n556 9.69747
R629 VTAIL.n620 VTAIL.n570 9.69747
R630 VTAIL.n600 VTAIL.n580 9.69747
R631 VTAIL.n537 VTAIL.n446 9.69747
R632 VTAIL.n510 VTAIL.n460 9.69747
R633 VTAIL.n490 VTAIL.n470 9.69747
R634 VTAIL.n427 VTAIL.n336 9.69747
R635 VTAIL.n400 VTAIL.n350 9.69747
R636 VTAIL.n380 VTAIL.n360 9.69747
R637 VTAIL.n878 VTAIL.n877 9.45567
R638 VTAIL.n108 VTAIL.n107 9.45567
R639 VTAIL.n218 VTAIL.n217 9.45567
R640 VTAIL.n328 VTAIL.n327 9.45567
R641 VTAIL.n768 VTAIL.n767 9.45567
R642 VTAIL.n658 VTAIL.n657 9.45567
R643 VTAIL.n548 VTAIL.n547 9.45567
R644 VTAIL.n438 VTAIL.n437 9.45567
R645 VTAIL.n877 VTAIL.n876 9.3005
R646 VTAIL.n871 VTAIL.n870 9.3005
R647 VTAIL.n869 VTAIL.n868 9.3005
R648 VTAIL.n776 VTAIL.n775 9.3005
R649 VTAIL.n863 VTAIL.n862 9.3005
R650 VTAIL.n861 VTAIL.n860 9.3005
R651 VTAIL.n780 VTAIL.n779 9.3005
R652 VTAIL.n855 VTAIL.n854 9.3005
R653 VTAIL.n827 VTAIL.n826 9.3005
R654 VTAIL.n796 VTAIL.n795 9.3005
R655 VTAIL.n821 VTAIL.n820 9.3005
R656 VTAIL.n819 VTAIL.n818 9.3005
R657 VTAIL.n800 VTAIL.n799 9.3005
R658 VTAIL.n813 VTAIL.n812 9.3005
R659 VTAIL.n811 VTAIL.n810 9.3005
R660 VTAIL.n804 VTAIL.n803 9.3005
R661 VTAIL.n829 VTAIL.n828 9.3005
R662 VTAIL.n792 VTAIL.n791 9.3005
R663 VTAIL.n835 VTAIL.n834 9.3005
R664 VTAIL.n837 VTAIL.n836 9.3005
R665 VTAIL.n788 VTAIL.n787 9.3005
R666 VTAIL.n843 VTAIL.n842 9.3005
R667 VTAIL.n845 VTAIL.n844 9.3005
R668 VTAIL.n846 VTAIL.n783 9.3005
R669 VTAIL.n853 VTAIL.n852 9.3005
R670 VTAIL.n772 VTAIL.n771 9.3005
R671 VTAIL.n107 VTAIL.n106 9.3005
R672 VTAIL.n101 VTAIL.n100 9.3005
R673 VTAIL.n99 VTAIL.n98 9.3005
R674 VTAIL.n6 VTAIL.n5 9.3005
R675 VTAIL.n93 VTAIL.n92 9.3005
R676 VTAIL.n91 VTAIL.n90 9.3005
R677 VTAIL.n10 VTAIL.n9 9.3005
R678 VTAIL.n85 VTAIL.n84 9.3005
R679 VTAIL.n57 VTAIL.n56 9.3005
R680 VTAIL.n26 VTAIL.n25 9.3005
R681 VTAIL.n51 VTAIL.n50 9.3005
R682 VTAIL.n49 VTAIL.n48 9.3005
R683 VTAIL.n30 VTAIL.n29 9.3005
R684 VTAIL.n43 VTAIL.n42 9.3005
R685 VTAIL.n41 VTAIL.n40 9.3005
R686 VTAIL.n34 VTAIL.n33 9.3005
R687 VTAIL.n59 VTAIL.n58 9.3005
R688 VTAIL.n22 VTAIL.n21 9.3005
R689 VTAIL.n65 VTAIL.n64 9.3005
R690 VTAIL.n67 VTAIL.n66 9.3005
R691 VTAIL.n18 VTAIL.n17 9.3005
R692 VTAIL.n73 VTAIL.n72 9.3005
R693 VTAIL.n75 VTAIL.n74 9.3005
R694 VTAIL.n76 VTAIL.n13 9.3005
R695 VTAIL.n83 VTAIL.n82 9.3005
R696 VTAIL.n2 VTAIL.n1 9.3005
R697 VTAIL.n217 VTAIL.n216 9.3005
R698 VTAIL.n211 VTAIL.n210 9.3005
R699 VTAIL.n209 VTAIL.n208 9.3005
R700 VTAIL.n116 VTAIL.n115 9.3005
R701 VTAIL.n203 VTAIL.n202 9.3005
R702 VTAIL.n201 VTAIL.n200 9.3005
R703 VTAIL.n120 VTAIL.n119 9.3005
R704 VTAIL.n195 VTAIL.n194 9.3005
R705 VTAIL.n167 VTAIL.n166 9.3005
R706 VTAIL.n136 VTAIL.n135 9.3005
R707 VTAIL.n161 VTAIL.n160 9.3005
R708 VTAIL.n159 VTAIL.n158 9.3005
R709 VTAIL.n140 VTAIL.n139 9.3005
R710 VTAIL.n153 VTAIL.n152 9.3005
R711 VTAIL.n151 VTAIL.n150 9.3005
R712 VTAIL.n144 VTAIL.n143 9.3005
R713 VTAIL.n169 VTAIL.n168 9.3005
R714 VTAIL.n132 VTAIL.n131 9.3005
R715 VTAIL.n175 VTAIL.n174 9.3005
R716 VTAIL.n177 VTAIL.n176 9.3005
R717 VTAIL.n128 VTAIL.n127 9.3005
R718 VTAIL.n183 VTAIL.n182 9.3005
R719 VTAIL.n185 VTAIL.n184 9.3005
R720 VTAIL.n186 VTAIL.n123 9.3005
R721 VTAIL.n193 VTAIL.n192 9.3005
R722 VTAIL.n112 VTAIL.n111 9.3005
R723 VTAIL.n327 VTAIL.n326 9.3005
R724 VTAIL.n321 VTAIL.n320 9.3005
R725 VTAIL.n319 VTAIL.n318 9.3005
R726 VTAIL.n226 VTAIL.n225 9.3005
R727 VTAIL.n313 VTAIL.n312 9.3005
R728 VTAIL.n311 VTAIL.n310 9.3005
R729 VTAIL.n230 VTAIL.n229 9.3005
R730 VTAIL.n305 VTAIL.n304 9.3005
R731 VTAIL.n277 VTAIL.n276 9.3005
R732 VTAIL.n246 VTAIL.n245 9.3005
R733 VTAIL.n271 VTAIL.n270 9.3005
R734 VTAIL.n269 VTAIL.n268 9.3005
R735 VTAIL.n250 VTAIL.n249 9.3005
R736 VTAIL.n263 VTAIL.n262 9.3005
R737 VTAIL.n261 VTAIL.n260 9.3005
R738 VTAIL.n254 VTAIL.n253 9.3005
R739 VTAIL.n279 VTAIL.n278 9.3005
R740 VTAIL.n242 VTAIL.n241 9.3005
R741 VTAIL.n285 VTAIL.n284 9.3005
R742 VTAIL.n287 VTAIL.n286 9.3005
R743 VTAIL.n238 VTAIL.n237 9.3005
R744 VTAIL.n293 VTAIL.n292 9.3005
R745 VTAIL.n295 VTAIL.n294 9.3005
R746 VTAIL.n296 VTAIL.n233 9.3005
R747 VTAIL.n303 VTAIL.n302 9.3005
R748 VTAIL.n222 VTAIL.n221 9.3005
R749 VTAIL.n684 VTAIL.n683 9.3005
R750 VTAIL.n727 VTAIL.n726 9.3005
R751 VTAIL.n729 VTAIL.n728 9.3005
R752 VTAIL.n680 VTAIL.n679 9.3005
R753 VTAIL.n735 VTAIL.n734 9.3005
R754 VTAIL.n737 VTAIL.n736 9.3005
R755 VTAIL.n675 VTAIL.n673 9.3005
R756 VTAIL.n743 VTAIL.n742 9.3005
R757 VTAIL.n767 VTAIL.n766 9.3005
R758 VTAIL.n662 VTAIL.n661 9.3005
R759 VTAIL.n761 VTAIL.n760 9.3005
R760 VTAIL.n759 VTAIL.n758 9.3005
R761 VTAIL.n666 VTAIL.n665 9.3005
R762 VTAIL.n753 VTAIL.n752 9.3005
R763 VTAIL.n751 VTAIL.n750 9.3005
R764 VTAIL.n670 VTAIL.n669 9.3005
R765 VTAIL.n745 VTAIL.n744 9.3005
R766 VTAIL.n721 VTAIL.n720 9.3005
R767 VTAIL.n719 VTAIL.n718 9.3005
R768 VTAIL.n688 VTAIL.n687 9.3005
R769 VTAIL.n713 VTAIL.n712 9.3005
R770 VTAIL.n711 VTAIL.n710 9.3005
R771 VTAIL.n692 VTAIL.n691 9.3005
R772 VTAIL.n705 VTAIL.n704 9.3005
R773 VTAIL.n703 VTAIL.n702 9.3005
R774 VTAIL.n696 VTAIL.n695 9.3005
R775 VTAIL.n574 VTAIL.n573 9.3005
R776 VTAIL.n617 VTAIL.n616 9.3005
R777 VTAIL.n619 VTAIL.n618 9.3005
R778 VTAIL.n570 VTAIL.n569 9.3005
R779 VTAIL.n625 VTAIL.n624 9.3005
R780 VTAIL.n627 VTAIL.n626 9.3005
R781 VTAIL.n565 VTAIL.n563 9.3005
R782 VTAIL.n633 VTAIL.n632 9.3005
R783 VTAIL.n657 VTAIL.n656 9.3005
R784 VTAIL.n552 VTAIL.n551 9.3005
R785 VTAIL.n651 VTAIL.n650 9.3005
R786 VTAIL.n649 VTAIL.n648 9.3005
R787 VTAIL.n556 VTAIL.n555 9.3005
R788 VTAIL.n643 VTAIL.n642 9.3005
R789 VTAIL.n641 VTAIL.n640 9.3005
R790 VTAIL.n560 VTAIL.n559 9.3005
R791 VTAIL.n635 VTAIL.n634 9.3005
R792 VTAIL.n611 VTAIL.n610 9.3005
R793 VTAIL.n609 VTAIL.n608 9.3005
R794 VTAIL.n578 VTAIL.n577 9.3005
R795 VTAIL.n603 VTAIL.n602 9.3005
R796 VTAIL.n601 VTAIL.n600 9.3005
R797 VTAIL.n582 VTAIL.n581 9.3005
R798 VTAIL.n595 VTAIL.n594 9.3005
R799 VTAIL.n593 VTAIL.n592 9.3005
R800 VTAIL.n586 VTAIL.n585 9.3005
R801 VTAIL.n464 VTAIL.n463 9.3005
R802 VTAIL.n507 VTAIL.n506 9.3005
R803 VTAIL.n509 VTAIL.n508 9.3005
R804 VTAIL.n460 VTAIL.n459 9.3005
R805 VTAIL.n515 VTAIL.n514 9.3005
R806 VTAIL.n517 VTAIL.n516 9.3005
R807 VTAIL.n455 VTAIL.n453 9.3005
R808 VTAIL.n523 VTAIL.n522 9.3005
R809 VTAIL.n547 VTAIL.n546 9.3005
R810 VTAIL.n442 VTAIL.n441 9.3005
R811 VTAIL.n541 VTAIL.n540 9.3005
R812 VTAIL.n539 VTAIL.n538 9.3005
R813 VTAIL.n446 VTAIL.n445 9.3005
R814 VTAIL.n533 VTAIL.n532 9.3005
R815 VTAIL.n531 VTAIL.n530 9.3005
R816 VTAIL.n450 VTAIL.n449 9.3005
R817 VTAIL.n525 VTAIL.n524 9.3005
R818 VTAIL.n501 VTAIL.n500 9.3005
R819 VTAIL.n499 VTAIL.n498 9.3005
R820 VTAIL.n468 VTAIL.n467 9.3005
R821 VTAIL.n493 VTAIL.n492 9.3005
R822 VTAIL.n491 VTAIL.n490 9.3005
R823 VTAIL.n472 VTAIL.n471 9.3005
R824 VTAIL.n485 VTAIL.n484 9.3005
R825 VTAIL.n483 VTAIL.n482 9.3005
R826 VTAIL.n476 VTAIL.n475 9.3005
R827 VTAIL.n354 VTAIL.n353 9.3005
R828 VTAIL.n397 VTAIL.n396 9.3005
R829 VTAIL.n399 VTAIL.n398 9.3005
R830 VTAIL.n350 VTAIL.n349 9.3005
R831 VTAIL.n405 VTAIL.n404 9.3005
R832 VTAIL.n407 VTAIL.n406 9.3005
R833 VTAIL.n345 VTAIL.n343 9.3005
R834 VTAIL.n413 VTAIL.n412 9.3005
R835 VTAIL.n437 VTAIL.n436 9.3005
R836 VTAIL.n332 VTAIL.n331 9.3005
R837 VTAIL.n431 VTAIL.n430 9.3005
R838 VTAIL.n429 VTAIL.n428 9.3005
R839 VTAIL.n336 VTAIL.n335 9.3005
R840 VTAIL.n423 VTAIL.n422 9.3005
R841 VTAIL.n421 VTAIL.n420 9.3005
R842 VTAIL.n340 VTAIL.n339 9.3005
R843 VTAIL.n415 VTAIL.n414 9.3005
R844 VTAIL.n391 VTAIL.n390 9.3005
R845 VTAIL.n389 VTAIL.n388 9.3005
R846 VTAIL.n358 VTAIL.n357 9.3005
R847 VTAIL.n383 VTAIL.n382 9.3005
R848 VTAIL.n381 VTAIL.n380 9.3005
R849 VTAIL.n362 VTAIL.n361 9.3005
R850 VTAIL.n375 VTAIL.n374 9.3005
R851 VTAIL.n373 VTAIL.n372 9.3005
R852 VTAIL.n366 VTAIL.n365 9.3005
R853 VTAIL.n822 VTAIL.n821 8.92171
R854 VTAIL.n837 VTAIL.n790 8.92171
R855 VTAIL.n868 VTAIL.n774 8.92171
R856 VTAIL.n52 VTAIL.n51 8.92171
R857 VTAIL.n67 VTAIL.n20 8.92171
R858 VTAIL.n98 VTAIL.n4 8.92171
R859 VTAIL.n162 VTAIL.n161 8.92171
R860 VTAIL.n177 VTAIL.n130 8.92171
R861 VTAIL.n208 VTAIL.n114 8.92171
R862 VTAIL.n272 VTAIL.n271 8.92171
R863 VTAIL.n287 VTAIL.n240 8.92171
R864 VTAIL.n318 VTAIL.n224 8.92171
R865 VTAIL.n758 VTAIL.n664 8.92171
R866 VTAIL.n729 VTAIL.n682 8.92171
R867 VTAIL.n714 VTAIL.n713 8.92171
R868 VTAIL.n648 VTAIL.n554 8.92171
R869 VTAIL.n619 VTAIL.n572 8.92171