* NGSPICE file created from diff_pair_sample_0520.ext - technology: sky130A

.subckt diff_pair_sample_0520 VTAIL VN VP B VDD2 VDD1
X0 VDD1.t7 VP.t0 VTAIL.t9 w_n3660_n4856# sky130_fd_pr__pfet_01v8 ad=3.2076 pd=19.77 as=3.2076 ps=19.77 w=19.44 l=2.36
X1 B.t11 B.t9 B.t10 w_n3660_n4856# sky130_fd_pr__pfet_01v8 ad=7.5816 pd=39.66 as=0 ps=0 w=19.44 l=2.36
X2 VDD2.t7 VN.t0 VTAIL.t2 w_n3660_n4856# sky130_fd_pr__pfet_01v8 ad=3.2076 pd=19.77 as=3.2076 ps=19.77 w=19.44 l=2.36
X3 VTAIL.t12 VP.t1 VDD1.t6 w_n3660_n4856# sky130_fd_pr__pfet_01v8 ad=3.2076 pd=19.77 as=3.2076 ps=19.77 w=19.44 l=2.36
X4 VTAIL.t1 VN.t1 VDD2.t6 w_n3660_n4856# sky130_fd_pr__pfet_01v8 ad=7.5816 pd=39.66 as=3.2076 ps=19.77 w=19.44 l=2.36
X5 VDD1.t5 VP.t2 VTAIL.t10 w_n3660_n4856# sky130_fd_pr__pfet_01v8 ad=3.2076 pd=19.77 as=7.5816 ps=39.66 w=19.44 l=2.36
X6 VTAIL.t5 VN.t2 VDD2.t5 w_n3660_n4856# sky130_fd_pr__pfet_01v8 ad=3.2076 pd=19.77 as=3.2076 ps=19.77 w=19.44 l=2.36
X7 VDD2.t4 VN.t3 VTAIL.t0 w_n3660_n4856# sky130_fd_pr__pfet_01v8 ad=3.2076 pd=19.77 as=7.5816 ps=39.66 w=19.44 l=2.36
X8 VDD1.t4 VP.t3 VTAIL.t13 w_n3660_n4856# sky130_fd_pr__pfet_01v8 ad=3.2076 pd=19.77 as=3.2076 ps=19.77 w=19.44 l=2.36
X9 VTAIL.t3 VN.t4 VDD2.t3 w_n3660_n4856# sky130_fd_pr__pfet_01v8 ad=3.2076 pd=19.77 as=3.2076 ps=19.77 w=19.44 l=2.36
X10 VTAIL.t14 VP.t4 VDD1.t3 w_n3660_n4856# sky130_fd_pr__pfet_01v8 ad=7.5816 pd=39.66 as=3.2076 ps=19.77 w=19.44 l=2.36
X11 VDD2.t2 VN.t5 VTAIL.t4 w_n3660_n4856# sky130_fd_pr__pfet_01v8 ad=3.2076 pd=19.77 as=7.5816 ps=39.66 w=19.44 l=2.36
X12 VTAIL.t7 VN.t6 VDD2.t1 w_n3660_n4856# sky130_fd_pr__pfet_01v8 ad=7.5816 pd=39.66 as=3.2076 ps=19.77 w=19.44 l=2.36
X13 VDD1.t2 VP.t5 VTAIL.t11 w_n3660_n4856# sky130_fd_pr__pfet_01v8 ad=3.2076 pd=19.77 as=7.5816 ps=39.66 w=19.44 l=2.36
X14 B.t8 B.t6 B.t7 w_n3660_n4856# sky130_fd_pr__pfet_01v8 ad=7.5816 pd=39.66 as=0 ps=0 w=19.44 l=2.36
X15 B.t5 B.t3 B.t4 w_n3660_n4856# sky130_fd_pr__pfet_01v8 ad=7.5816 pd=39.66 as=0 ps=0 w=19.44 l=2.36
X16 VDD2.t0 VN.t7 VTAIL.t6 w_n3660_n4856# sky130_fd_pr__pfet_01v8 ad=3.2076 pd=19.77 as=3.2076 ps=19.77 w=19.44 l=2.36
X17 B.t2 B.t0 B.t1 w_n3660_n4856# sky130_fd_pr__pfet_01v8 ad=7.5816 pd=39.66 as=0 ps=0 w=19.44 l=2.36
X18 VTAIL.t8 VP.t6 VDD1.t1 w_n3660_n4856# sky130_fd_pr__pfet_01v8 ad=7.5816 pd=39.66 as=3.2076 ps=19.77 w=19.44 l=2.36
X19 VTAIL.t15 VP.t7 VDD1.t0 w_n3660_n4856# sky130_fd_pr__pfet_01v8 ad=3.2076 pd=19.77 as=3.2076 ps=19.77 w=19.44 l=2.36
R0 VP.n15 VP.t6 230.635
R1 VP.n36 VP.t4 198.519
R2 VP.n43 VP.t3 198.519
R3 VP.n55 VP.t7 198.519
R4 VP.n63 VP.t5 198.519
R5 VP.n33 VP.t2 198.519
R6 VP.n25 VP.t1 198.519
R7 VP.n14 VP.t0 198.519
R8 VP.n16 VP.n13 161.3
R9 VP.n18 VP.n17 161.3
R10 VP.n19 VP.n12 161.3
R11 VP.n21 VP.n20 161.3
R12 VP.n22 VP.n11 161.3
R13 VP.n24 VP.n23 161.3
R14 VP.n26 VP.n10 161.3
R15 VP.n28 VP.n27 161.3
R16 VP.n29 VP.n9 161.3
R17 VP.n31 VP.n30 161.3
R18 VP.n32 VP.n8 161.3
R19 VP.n62 VP.n0 161.3
R20 VP.n61 VP.n60 161.3
R21 VP.n59 VP.n1 161.3
R22 VP.n58 VP.n57 161.3
R23 VP.n56 VP.n2 161.3
R24 VP.n54 VP.n53 161.3
R25 VP.n52 VP.n3 161.3
R26 VP.n51 VP.n50 161.3
R27 VP.n49 VP.n4 161.3
R28 VP.n48 VP.n47 161.3
R29 VP.n46 VP.n5 161.3
R30 VP.n45 VP.n44 161.3
R31 VP.n42 VP.n6 161.3
R32 VP.n41 VP.n40 161.3
R33 VP.n39 VP.n7 161.3
R34 VP.n38 VP.n37 161.3
R35 VP.n36 VP.n35 96.7304
R36 VP.n64 VP.n63 96.7304
R37 VP.n34 VP.n33 96.7304
R38 VP.n15 VP.n14 67.322
R39 VP.n50 VP.n49 56.4773
R40 VP.n20 VP.n19 56.4773
R41 VP.n35 VP.n34 55.4313
R42 VP.n42 VP.n41 46.253
R43 VP.n57 VP.n1 46.253
R44 VP.n27 VP.n9 46.253
R45 VP.n41 VP.n7 34.5682
R46 VP.n61 VP.n1 34.5682
R47 VP.n31 VP.n9 34.5682
R48 VP.n37 VP.n7 24.3439
R49 VP.n44 VP.n42 24.3439
R50 VP.n48 VP.n5 24.3439
R51 VP.n49 VP.n48 24.3439
R52 VP.n50 VP.n3 24.3439
R53 VP.n54 VP.n3 24.3439
R54 VP.n57 VP.n56 24.3439
R55 VP.n62 VP.n61 24.3439
R56 VP.n32 VP.n31 24.3439
R57 VP.n20 VP.n11 24.3439
R58 VP.n24 VP.n11 24.3439
R59 VP.n27 VP.n26 24.3439
R60 VP.n18 VP.n13 24.3439
R61 VP.n19 VP.n18 24.3439
R62 VP.n44 VP.n43 19.7187
R63 VP.n56 VP.n55 19.7187
R64 VP.n26 VP.n25 19.7187
R65 VP.n37 VP.n36 13.8763
R66 VP.n63 VP.n62 13.8763
R67 VP.n33 VP.n32 13.8763
R68 VP.n16 VP.n15 9.62344
R69 VP.n43 VP.n5 4.62575
R70 VP.n55 VP.n54 4.62575
R71 VP.n25 VP.n24 4.62575
R72 VP.n14 VP.n13 4.62575
R73 VP.n34 VP.n8 0.278398
R74 VP.n38 VP.n35 0.278398
R75 VP.n64 VP.n0 0.278398
R76 VP.n17 VP.n16 0.189894
R77 VP.n17 VP.n12 0.189894
R78 VP.n21 VP.n12 0.189894
R79 VP.n22 VP.n21 0.189894
R80 VP.n23 VP.n22 0.189894
R81 VP.n23 VP.n10 0.189894
R82 VP.n28 VP.n10 0.189894
R83 VP.n29 VP.n28 0.189894
R84 VP.n30 VP.n29 0.189894
R85 VP.n30 VP.n8 0.189894
R86 VP.n39 VP.n38 0.189894
R87 VP.n40 VP.n39 0.189894
R88 VP.n40 VP.n6 0.189894
R89 VP.n45 VP.n6 0.189894
R90 VP.n46 VP.n45 0.189894
R91 VP.n47 VP.n46 0.189894
R92 VP.n47 VP.n4 0.189894
R93 VP.n51 VP.n4 0.189894
R94 VP.n52 VP.n51 0.189894
R95 VP.n53 VP.n52 0.189894
R96 VP.n53 VP.n2 0.189894
R97 VP.n58 VP.n2 0.189894
R98 VP.n59 VP.n58 0.189894
R99 VP.n60 VP.n59 0.189894
R100 VP.n60 VP.n0 0.189894
R101 VP VP.n64 0.153422
R102 VTAIL.n785 VTAIL.n784 585
R103 VTAIL.n782 VTAIL.n781 585
R104 VTAIL.n791 VTAIL.n790 585
R105 VTAIL.n793 VTAIL.n792 585
R106 VTAIL.n778 VTAIL.n777 585
R107 VTAIL.n799 VTAIL.n798 585
R108 VTAIL.n802 VTAIL.n801 585
R109 VTAIL.n800 VTAIL.n774 585
R110 VTAIL.n807 VTAIL.n773 585
R111 VTAIL.n809 VTAIL.n808 585
R112 VTAIL.n811 VTAIL.n810 585
R113 VTAIL.n770 VTAIL.n769 585
R114 VTAIL.n817 VTAIL.n816 585
R115 VTAIL.n819 VTAIL.n818 585
R116 VTAIL.n766 VTAIL.n765 585
R117 VTAIL.n825 VTAIL.n824 585
R118 VTAIL.n827 VTAIL.n826 585
R119 VTAIL.n762 VTAIL.n761 585
R120 VTAIL.n833 VTAIL.n832 585
R121 VTAIL.n835 VTAIL.n834 585
R122 VTAIL.n758 VTAIL.n757 585
R123 VTAIL.n841 VTAIL.n840 585
R124 VTAIL.n843 VTAIL.n842 585
R125 VTAIL.n754 VTAIL.n753 585
R126 VTAIL.n849 VTAIL.n848 585
R127 VTAIL.n851 VTAIL.n850 585
R128 VTAIL.n37 VTAIL.n36 585
R129 VTAIL.n34 VTAIL.n33 585
R130 VTAIL.n43 VTAIL.n42 585
R131 VTAIL.n45 VTAIL.n44 585
R132 VTAIL.n30 VTAIL.n29 585
R133 VTAIL.n51 VTAIL.n50 585
R134 VTAIL.n54 VTAIL.n53 585
R135 VTAIL.n52 VTAIL.n26 585
R136 VTAIL.n59 VTAIL.n25 585
R137 VTAIL.n61 VTAIL.n60 585
R138 VTAIL.n63 VTAIL.n62 585
R139 VTAIL.n22 VTAIL.n21 585
R140 VTAIL.n69 VTAIL.n68 585
R141 VTAIL.n71 VTAIL.n70 585
R142 VTAIL.n18 VTAIL.n17 585
R143 VTAIL.n77 VTAIL.n76 585
R144 VTAIL.n79 VTAIL.n78 585
R145 VTAIL.n14 VTAIL.n13 585
R146 VTAIL.n85 VTAIL.n84 585
R147 VTAIL.n87 VTAIL.n86 585
R148 VTAIL.n10 VTAIL.n9 585
R149 VTAIL.n93 VTAIL.n92 585
R150 VTAIL.n95 VTAIL.n94 585
R151 VTAIL.n6 VTAIL.n5 585
R152 VTAIL.n101 VTAIL.n100 585
R153 VTAIL.n103 VTAIL.n102 585
R154 VTAIL.n143 VTAIL.n142 585
R155 VTAIL.n140 VTAIL.n139 585
R156 VTAIL.n149 VTAIL.n148 585
R157 VTAIL.n151 VTAIL.n150 585
R158 VTAIL.n136 VTAIL.n135 585
R159 VTAIL.n157 VTAIL.n156 585
R160 VTAIL.n160 VTAIL.n159 585
R161 VTAIL.n158 VTAIL.n132 585
R162 VTAIL.n165 VTAIL.n131 585
R163 VTAIL.n167 VTAIL.n166 585
R164 VTAIL.n169 VTAIL.n168 585
R165 VTAIL.n128 VTAIL.n127 585
R166 VTAIL.n175 VTAIL.n174 585
R167 VTAIL.n177 VTAIL.n176 585
R168 VTAIL.n124 VTAIL.n123 585
R169 VTAIL.n183 VTAIL.n182 585
R170 VTAIL.n185 VTAIL.n184 585
R171 VTAIL.n120 VTAIL.n119 585
R172 VTAIL.n191 VTAIL.n190 585
R173 VTAIL.n193 VTAIL.n192 585
R174 VTAIL.n116 VTAIL.n115 585
R175 VTAIL.n199 VTAIL.n198 585
R176 VTAIL.n201 VTAIL.n200 585
R177 VTAIL.n112 VTAIL.n111 585
R178 VTAIL.n207 VTAIL.n206 585
R179 VTAIL.n209 VTAIL.n208 585
R180 VTAIL.n251 VTAIL.n250 585
R181 VTAIL.n248 VTAIL.n247 585
R182 VTAIL.n257 VTAIL.n256 585
R183 VTAIL.n259 VTAIL.n258 585
R184 VTAIL.n244 VTAIL.n243 585
R185 VTAIL.n265 VTAIL.n264 585
R186 VTAIL.n268 VTAIL.n267 585
R187 VTAIL.n266 VTAIL.n240 585
R188 VTAIL.n273 VTAIL.n239 585
R189 VTAIL.n275 VTAIL.n274 585
R190 VTAIL.n277 VTAIL.n276 585
R191 VTAIL.n236 VTAIL.n235 585
R192 VTAIL.n283 VTAIL.n282 585
R193 VTAIL.n285 VTAIL.n284 585
R194 VTAIL.n232 VTAIL.n231 585
R195 VTAIL.n291 VTAIL.n290 585
R196 VTAIL.n293 VTAIL.n292 585
R197 VTAIL.n228 VTAIL.n227 585
R198 VTAIL.n299 VTAIL.n298 585
R199 VTAIL.n301 VTAIL.n300 585
R200 VTAIL.n224 VTAIL.n223 585
R201 VTAIL.n307 VTAIL.n306 585
R202 VTAIL.n309 VTAIL.n308 585
R203 VTAIL.n220 VTAIL.n219 585
R204 VTAIL.n315 VTAIL.n314 585
R205 VTAIL.n317 VTAIL.n316 585
R206 VTAIL.n745 VTAIL.n744 585
R207 VTAIL.n743 VTAIL.n742 585
R208 VTAIL.n648 VTAIL.n647 585
R209 VTAIL.n737 VTAIL.n736 585
R210 VTAIL.n735 VTAIL.n734 585
R211 VTAIL.n652 VTAIL.n651 585
R212 VTAIL.n729 VTAIL.n728 585
R213 VTAIL.n727 VTAIL.n726 585
R214 VTAIL.n656 VTAIL.n655 585
R215 VTAIL.n721 VTAIL.n720 585
R216 VTAIL.n719 VTAIL.n718 585
R217 VTAIL.n660 VTAIL.n659 585
R218 VTAIL.n713 VTAIL.n712 585
R219 VTAIL.n711 VTAIL.n710 585
R220 VTAIL.n664 VTAIL.n663 585
R221 VTAIL.n705 VTAIL.n704 585
R222 VTAIL.n703 VTAIL.n702 585
R223 VTAIL.n701 VTAIL.n667 585
R224 VTAIL.n671 VTAIL.n668 585
R225 VTAIL.n696 VTAIL.n695 585
R226 VTAIL.n694 VTAIL.n693 585
R227 VTAIL.n673 VTAIL.n672 585
R228 VTAIL.n688 VTAIL.n687 585
R229 VTAIL.n686 VTAIL.n685 585
R230 VTAIL.n677 VTAIL.n676 585
R231 VTAIL.n680 VTAIL.n679 585
R232 VTAIL.n637 VTAIL.n636 585
R233 VTAIL.n635 VTAIL.n634 585
R234 VTAIL.n540 VTAIL.n539 585
R235 VTAIL.n629 VTAIL.n628 585
R236 VTAIL.n627 VTAIL.n626 585
R237 VTAIL.n544 VTAIL.n543 585
R238 VTAIL.n621 VTAIL.n620 585
R239 VTAIL.n619 VTAIL.n618 585
R240 VTAIL.n548 VTAIL.n547 585
R241 VTAIL.n613 VTAIL.n612 585
R242 VTAIL.n611 VTAIL.n610 585
R243 VTAIL.n552 VTAIL.n551 585
R244 VTAIL.n605 VTAIL.n604 585
R245 VTAIL.n603 VTAIL.n602 585
R246 VTAIL.n556 VTAIL.n555 585
R247 VTAIL.n597 VTAIL.n596 585
R248 VTAIL.n595 VTAIL.n594 585
R249 VTAIL.n593 VTAIL.n559 585
R250 VTAIL.n563 VTAIL.n560 585
R251 VTAIL.n588 VTAIL.n587 585
R252 VTAIL.n586 VTAIL.n585 585
R253 VTAIL.n565 VTAIL.n564 585
R254 VTAIL.n580 VTAIL.n579 585
R255 VTAIL.n578 VTAIL.n577 585
R256 VTAIL.n569 VTAIL.n568 585
R257 VTAIL.n572 VTAIL.n571 585
R258 VTAIL.n531 VTAIL.n530 585
R259 VTAIL.n529 VTAIL.n528 585
R260 VTAIL.n434 VTAIL.n433 585
R261 VTAIL.n523 VTAIL.n522 585
R262 VTAIL.n521 VTAIL.n520 585
R263 VTAIL.n438 VTAIL.n437 585
R264 VTAIL.n515 VTAIL.n514 585
R265 VTAIL.n513 VTAIL.n512 585
R266 VTAIL.n442 VTAIL.n441 585
R267 VTAIL.n507 VTAIL.n506 585
R268 VTAIL.n505 VTAIL.n504 585
R269 VTAIL.n446 VTAIL.n445 585
R270 VTAIL.n499 VTAIL.n498 585
R271 VTAIL.n497 VTAIL.n496 585
R272 VTAIL.n450 VTAIL.n449 585
R273 VTAIL.n491 VTAIL.n490 585
R274 VTAIL.n489 VTAIL.n488 585
R275 VTAIL.n487 VTAIL.n453 585
R276 VTAIL.n457 VTAIL.n454 585
R277 VTAIL.n482 VTAIL.n481 585
R278 VTAIL.n480 VTAIL.n479 585
R279 VTAIL.n459 VTAIL.n458 585
R280 VTAIL.n474 VTAIL.n473 585
R281 VTAIL.n472 VTAIL.n471 585
R282 VTAIL.n463 VTAIL.n462 585
R283 VTAIL.n466 VTAIL.n465 585
R284 VTAIL.n423 VTAIL.n422 585
R285 VTAIL.n421 VTAIL.n420 585
R286 VTAIL.n326 VTAIL.n325 585
R287 VTAIL.n415 VTAIL.n414 585
R288 VTAIL.n413 VTAIL.n412 585
R289 VTAIL.n330 VTAIL.n329 585
R290 VTAIL.n407 VTAIL.n406 585
R291 VTAIL.n405 VTAIL.n404 585
R292 VTAIL.n334 VTAIL.n333 585
R293 VTAIL.n399 VTAIL.n398 585
R294 VTAIL.n397 VTAIL.n396 585
R295 VTAIL.n338 VTAIL.n337 585
R296 VTAIL.n391 VTAIL.n390 585
R297 VTAIL.n389 VTAIL.n388 585
R298 VTAIL.n342 VTAIL.n341 585
R299 VTAIL.n383 VTAIL.n382 585
R300 VTAIL.n381 VTAIL.n380 585
R301 VTAIL.n379 VTAIL.n345 585
R302 VTAIL.n349 VTAIL.n346 585
R303 VTAIL.n374 VTAIL.n373 585
R304 VTAIL.n372 VTAIL.n371 585
R305 VTAIL.n351 VTAIL.n350 585
R306 VTAIL.n366 VTAIL.n365 585
R307 VTAIL.n364 VTAIL.n363 585
R308 VTAIL.n355 VTAIL.n354 585
R309 VTAIL.n358 VTAIL.n357 585
R310 VTAIL.n850 VTAIL.n750 498.474
R311 VTAIL.n102 VTAIL.n2 498.474
R312 VTAIL.n208 VTAIL.n108 498.474
R313 VTAIL.n316 VTAIL.n216 498.474
R314 VTAIL.n744 VTAIL.n644 498.474
R315 VTAIL.n636 VTAIL.n536 498.474
R316 VTAIL.n530 VTAIL.n430 498.474
R317 VTAIL.n422 VTAIL.n322 498.474
R318 VTAIL.t4 VTAIL.n783 329.036
R319 VTAIL.t7 VTAIL.n35 329.036
R320 VTAIL.t11 VTAIL.n141 329.036
R321 VTAIL.t14 VTAIL.n249 329.036
R322 VTAIL.t10 VTAIL.n678 329.036
R323 VTAIL.t8 VTAIL.n570 329.036
R324 VTAIL.t0 VTAIL.n464 329.036
R325 VTAIL.t1 VTAIL.n356 329.036
R326 VTAIL.n784 VTAIL.n781 171.744
R327 VTAIL.n791 VTAIL.n781 171.744
R328 VTAIL.n792 VTAIL.n791 171.744
R329 VTAIL.n792 VTAIL.n777 171.744
R330 VTAIL.n799 VTAIL.n777 171.744
R331 VTAIL.n801 VTAIL.n799 171.744
R332 VTAIL.n801 VTAIL.n800 171.744
R333 VTAIL.n800 VTAIL.n773 171.744
R334 VTAIL.n809 VTAIL.n773 171.744
R335 VTAIL.n810 VTAIL.n809 171.744
R336 VTAIL.n810 VTAIL.n769 171.744
R337 VTAIL.n817 VTAIL.n769 171.744
R338 VTAIL.n818 VTAIL.n817 171.744
R339 VTAIL.n818 VTAIL.n765 171.744
R340 VTAIL.n825 VTAIL.n765 171.744
R341 VTAIL.n826 VTAIL.n825 171.744
R342 VTAIL.n826 VTAIL.n761 171.744
R343 VTAIL.n833 VTAIL.n761 171.744
R344 VTAIL.n834 VTAIL.n833 171.744
R345 VTAIL.n834 VTAIL.n757 171.744
R346 VTAIL.n841 VTAIL.n757 171.744
R347 VTAIL.n842 VTAIL.n841 171.744
R348 VTAIL.n842 VTAIL.n753 171.744
R349 VTAIL.n849 VTAIL.n753 171.744
R350 VTAIL.n850 VTAIL.n849 171.744
R351 VTAIL.n36 VTAIL.n33 171.744
R352 VTAIL.n43 VTAIL.n33 171.744
R353 VTAIL.n44 VTAIL.n43 171.744
R354 VTAIL.n44 VTAIL.n29 171.744
R355 VTAIL.n51 VTAIL.n29 171.744
R356 VTAIL.n53 VTAIL.n51 171.744
R357 VTAIL.n53 VTAIL.n52 171.744
R358 VTAIL.n52 VTAIL.n25 171.744
R359 VTAIL.n61 VTAIL.n25 171.744
R360 VTAIL.n62 VTAIL.n61 171.744
R361 VTAIL.n62 VTAIL.n21 171.744
R362 VTAIL.n69 VTAIL.n21 171.744
R363 VTAIL.n70 VTAIL.n69 171.744
R364 VTAIL.n70 VTAIL.n17 171.744
R365 VTAIL.n77 VTAIL.n17 171.744
R366 VTAIL.n78 VTAIL.n77 171.744
R367 VTAIL.n78 VTAIL.n13 171.744
R368 VTAIL.n85 VTAIL.n13 171.744
R369 VTAIL.n86 VTAIL.n85 171.744
R370 VTAIL.n86 VTAIL.n9 171.744
R371 VTAIL.n93 VTAIL.n9 171.744
R372 VTAIL.n94 VTAIL.n93 171.744
R373 VTAIL.n94 VTAIL.n5 171.744
R374 VTAIL.n101 VTAIL.n5 171.744
R375 VTAIL.n102 VTAIL.n101 171.744
R376 VTAIL.n142 VTAIL.n139 171.744
R377 VTAIL.n149 VTAIL.n139 171.744
R378 VTAIL.n150 VTAIL.n149 171.744
R379 VTAIL.n150 VTAIL.n135 171.744
R380 VTAIL.n157 VTAIL.n135 171.744
R381 VTAIL.n159 VTAIL.n157 171.744
R382 VTAIL.n159 VTAIL.n158 171.744
R383 VTAIL.n158 VTAIL.n131 171.744
R384 VTAIL.n167 VTAIL.n131 171.744
R385 VTAIL.n168 VTAIL.n167 171.744
R386 VTAIL.n168 VTAIL.n127 171.744
R387 VTAIL.n175 VTAIL.n127 171.744
R388 VTAIL.n176 VTAIL.n175 171.744
R389 VTAIL.n176 VTAIL.n123 171.744
R390 VTAIL.n183 VTAIL.n123 171.744
R391 VTAIL.n184 VTAIL.n183 171.744
R392 VTAIL.n184 VTAIL.n119 171.744
R393 VTAIL.n191 VTAIL.n119 171.744
R394 VTAIL.n192 VTAIL.n191 171.744
R395 VTAIL.n192 VTAIL.n115 171.744
R396 VTAIL.n199 VTAIL.n115 171.744
R397 VTAIL.n200 VTAIL.n199 171.744
R398 VTAIL.n200 VTAIL.n111 171.744
R399 VTAIL.n207 VTAIL.n111 171.744
R400 VTAIL.n208 VTAIL.n207 171.744
R401 VTAIL.n250 VTAIL.n247 171.744
R402 VTAIL.n257 VTAIL.n247 171.744
R403 VTAIL.n258 VTAIL.n257 171.744
R404 VTAIL.n258 VTAIL.n243 171.744
R405 VTAIL.n265 VTAIL.n243 171.744
R406 VTAIL.n267 VTAIL.n265 171.744
R407 VTAIL.n267 VTAIL.n266 171.744
R408 VTAIL.n266 VTAIL.n239 171.744
R409 VTAIL.n275 VTAIL.n239 171.744
R410 VTAIL.n276 VTAIL.n275 171.744
R411 VTAIL.n276 VTAIL.n235 171.744
R412 VTAIL.n283 VTAIL.n235 171.744
R413 VTAIL.n284 VTAIL.n283 171.744
R414 VTAIL.n284 VTAIL.n231 171.744
R415 VTAIL.n291 VTAIL.n231 171.744
R416 VTAIL.n292 VTAIL.n291 171.744
R417 VTAIL.n292 VTAIL.n227 171.744
R418 VTAIL.n299 VTAIL.n227 171.744
R419 VTAIL.n300 VTAIL.n299 171.744
R420 VTAIL.n300 VTAIL.n223 171.744
R421 VTAIL.n307 VTAIL.n223 171.744
R422 VTAIL.n308 VTAIL.n307 171.744
R423 VTAIL.n308 VTAIL.n219 171.744
R424 VTAIL.n315 VTAIL.n219 171.744
R425 VTAIL.n316 VTAIL.n315 171.744
R426 VTAIL.n744 VTAIL.n743 171.744
R427 VTAIL.n743 VTAIL.n647 171.744
R428 VTAIL.n736 VTAIL.n647 171.744
R429 VTAIL.n736 VTAIL.n735 171.744
R430 VTAIL.n735 VTAIL.n651 171.744
R431 VTAIL.n728 VTAIL.n651 171.744
R432 VTAIL.n728 VTAIL.n727 171.744
R433 VTAIL.n727 VTAIL.n655 171.744
R434 VTAIL.n720 VTAIL.n655 171.744
R435 VTAIL.n720 VTAIL.n719 171.744
R436 VTAIL.n719 VTAIL.n659 171.744
R437 VTAIL.n712 VTAIL.n659 171.744
R438 VTAIL.n712 VTAIL.n711 171.744
R439 VTAIL.n711 VTAIL.n663 171.744
R440 VTAIL.n704 VTAIL.n663 171.744
R441 VTAIL.n704 VTAIL.n703 171.744
R442 VTAIL.n703 VTAIL.n667 171.744
R443 VTAIL.n671 VTAIL.n667 171.744
R444 VTAIL.n695 VTAIL.n671 171.744
R445 VTAIL.n695 VTAIL.n694 171.744
R446 VTAIL.n694 VTAIL.n672 171.744
R447 VTAIL.n687 VTAIL.n672 171.744
R448 VTAIL.n687 VTAIL.n686 171.744
R449 VTAIL.n686 VTAIL.n676 171.744
R450 VTAIL.n679 VTAIL.n676 171.744
R451 VTAIL.n636 VTAIL.n635 171.744
R452 VTAIL.n635 VTAIL.n539 171.744
R453 VTAIL.n628 VTAIL.n539 171.744
R454 VTAIL.n628 VTAIL.n627 171.744
R455 VTAIL.n627 VTAIL.n543 171.744
R456 VTAIL.n620 VTAIL.n543 171.744
R457 VTAIL.n620 VTAIL.n619 171.744
R458 VTAIL.n619 VTAIL.n547 171.744
R459 VTAIL.n612 VTAIL.n547 171.744
R460 VTAIL.n612 VTAIL.n611 171.744
R461 VTAIL.n611 VTAIL.n551 171.744
R462 VTAIL.n604 VTAIL.n551 171.744
R463 VTAIL.n604 VTAIL.n603 171.744
R464 VTAIL.n603 VTAIL.n555 171.744
R465 VTAIL.n596 VTAIL.n555 171.744
R466 VTAIL.n596 VTAIL.n595 171.744
R467 VTAIL.n595 VTAIL.n559 171.744
R468 VTAIL.n563 VTAIL.n559 171.744
R469 VTAIL.n587 VTAIL.n563 171.744
R470 VTAIL.n587 VTAIL.n586 171.744
R471 VTAIL.n586 VTAIL.n564 171.744
R472 VTAIL.n579 VTAIL.n564 171.744
R473 VTAIL.n579 VTAIL.n578 171.744
R474 VTAIL.n578 VTAIL.n568 171.744
R475 VTAIL.n571 VTAIL.n568 171.744
R476 VTAIL.n530 VTAIL.n529 171.744
R477 VTAIL.n529 VTAIL.n433 171.744
R478 VTAIL.n522 VTAIL.n433 171.744
R479 VTAIL.n522 VTAIL.n521 171.744
R480 VTAIL.n521 VTAIL.n437 171.744
R481 VTAIL.n514 VTAIL.n437 171.744
R482 VTAIL.n514 VTAIL.n513 171.744
R483 VTAIL.n513 VTAIL.n441 171.744
R484 VTAIL.n506 VTAIL.n441 171.744
R485 VTAIL.n506 VTAIL.n505 171.744
R486 VTAIL.n505 VTAIL.n445 171.744
R487 VTAIL.n498 VTAIL.n445 171.744
R488 VTAIL.n498 VTAIL.n497 171.744
R489 VTAIL.n497 VTAIL.n449 171.744
R490 VTAIL.n490 VTAIL.n449 171.744
R491 VTAIL.n490 VTAIL.n489 171.744
R492 VTAIL.n489 VTAIL.n453 171.744
R493 VTAIL.n457 VTAIL.n453 171.744
R494 VTAIL.n481 VTAIL.n457 171.744
R495 VTAIL.n481 VTAIL.n480 171.744
R496 VTAIL.n480 VTAIL.n458 171.744
R497 VTAIL.n473 VTAIL.n458 171.744
R498 VTAIL.n473 VTAIL.n472 171.744
R499 VTAIL.n472 VTAIL.n462 171.744
R500 VTAIL.n465 VTAIL.n462 171.744
R501 VTAIL.n422 VTAIL.n421 171.744
R502 VTAIL.n421 VTAIL.n325 171.744
R503 VTAIL.n414 VTAIL.n325 171.744
R504 VTAIL.n414 VTAIL.n413 171.744
R505 VTAIL.n413 VTAIL.n329 171.744
R506 VTAIL.n406 VTAIL.n329 171.744
R507 VTAIL.n406 VTAIL.n405 171.744
R508 VTAIL.n405 VTAIL.n333 171.744
R509 VTAIL.n398 VTAIL.n333 171.744
R510 VTAIL.n398 VTAIL.n397 171.744
R511 VTAIL.n397 VTAIL.n337 171.744
R512 VTAIL.n390 VTAIL.n337 171.744
R513 VTAIL.n390 VTAIL.n389 171.744
R514 VTAIL.n389 VTAIL.n341 171.744
R515 VTAIL.n382 VTAIL.n341 171.744
R516 VTAIL.n382 VTAIL.n381 171.744
R517 VTAIL.n381 VTAIL.n345 171.744
R518 VTAIL.n349 VTAIL.n345 171.744
R519 VTAIL.n373 VTAIL.n349 171.744
R520 VTAIL.n373 VTAIL.n372 171.744
R521 VTAIL.n372 VTAIL.n350 171.744
R522 VTAIL.n365 VTAIL.n350 171.744
R523 VTAIL.n365 VTAIL.n364 171.744
R524 VTAIL.n364 VTAIL.n354 171.744
R525 VTAIL.n357 VTAIL.n354 171.744
R526 VTAIL.n784 VTAIL.t4 85.8723
R527 VTAIL.n36 VTAIL.t7 85.8723
R528 VTAIL.n142 VTAIL.t11 85.8723
R529 VTAIL.n250 VTAIL.t14 85.8723
R530 VTAIL.n679 VTAIL.t10 85.8723
R531 VTAIL.n571 VTAIL.t8 85.8723
R532 VTAIL.n465 VTAIL.t0 85.8723
R533 VTAIL.n357 VTAIL.t1 85.8723
R534 VTAIL.n643 VTAIL.n642 53.4917
R535 VTAIL.n429 VTAIL.n428 53.4917
R536 VTAIL.n1 VTAIL.n0 53.4916
R537 VTAIL.n215 VTAIL.n214 53.4916
R538 VTAIL.n855 VTAIL.n854 34.5126
R539 VTAIL.n107 VTAIL.n106 34.5126
R540 VTAIL.n213 VTAIL.n212 34.5126
R541 VTAIL.n321 VTAIL.n320 34.5126
R542 VTAIL.n749 VTAIL.n748 34.5126
R543 VTAIL.n641 VTAIL.n640 34.5126
R544 VTAIL.n535 VTAIL.n534 34.5126
R545 VTAIL.n427 VTAIL.n426 34.5126
R546 VTAIL.n855 VTAIL.n749 31.4445
R547 VTAIL.n427 VTAIL.n321 31.4445
R548 VTAIL.n808 VTAIL.n807 13.1884
R549 VTAIL.n60 VTAIL.n59 13.1884
R550 VTAIL.n166 VTAIL.n165 13.1884
R551 VTAIL.n274 VTAIL.n273 13.1884
R552 VTAIL.n702 VTAIL.n701 13.1884
R553 VTAIL.n594 VTAIL.n593 13.1884
R554 VTAIL.n488 VTAIL.n487 13.1884
R555 VTAIL.n380 VTAIL.n379 13.1884
R556 VTAIL.n806 VTAIL.n774 12.8005
R557 VTAIL.n811 VTAIL.n772 12.8005
R558 VTAIL.n852 VTAIL.n851 12.8005
R559 VTAIL.n58 VTAIL.n26 12.8005
R560 VTAIL.n63 VTAIL.n24 12.8005
R561 VTAIL.n104 VTAIL.n103 12.8005
R562 VTAIL.n164 VTAIL.n132 12.8005
R563 VTAIL.n169 VTAIL.n130 12.8005
R564 VTAIL.n210 VTAIL.n209 12.8005
R565 VTAIL.n272 VTAIL.n240 12.8005
R566 VTAIL.n277 VTAIL.n238 12.8005
R567 VTAIL.n318 VTAIL.n317 12.8005
R568 VTAIL.n746 VTAIL.n745 12.8005
R569 VTAIL.n705 VTAIL.n666 12.8005
R570 VTAIL.n700 VTAIL.n668 12.8005
R571 VTAIL.n638 VTAIL.n637 12.8005
R572 VTAIL.n597 VTAIL.n558 12.8005
R573 VTAIL.n592 VTAIL.n560 12.8005
R574 VTAIL.n532 VTAIL.n531 12.8005
R575 VTAIL.n491 VTAIL.n452 12.8005
R576 VTAIL.n486 VTAIL.n454 12.8005
R577 VTAIL.n424 VTAIL.n423 12.8005
R578 VTAIL.n383 VTAIL.n344 12.8005
R579 VTAIL.n378 VTAIL.n346 12.8005
R580 VTAIL.n803 VTAIL.n802 12.0247
R581 VTAIL.n812 VTAIL.n770 12.0247
R582 VTAIL.n848 VTAIL.n752 12.0247
R583 VTAIL.n55 VTAIL.n54 12.0247
R584 VTAIL.n64 VTAIL.n22 12.0247
R585 VTAIL.n100 VTAIL.n4 12.0247
R586 VTAIL.n161 VTAIL.n160 12.0247
R587 VTAIL.n170 VTAIL.n128 12.0247
R588 VTAIL.n206 VTAIL.n110 12.0247
R589 VTAIL.n269 VTAIL.n268 12.0247
R590 VTAIL.n278 VTAIL.n236 12.0247
R591 VTAIL.n314 VTAIL.n218 12.0247
R592 VTAIL.n742 VTAIL.n646 12.0247
R593 VTAIL.n706 VTAIL.n664 12.0247
R594 VTAIL.n697 VTAIL.n696 12.0247
R595 VTAIL.n634 VTAIL.n538 12.0247
R596 VTAIL.n598 VTAIL.n556 12.0247
R597 VTAIL.n589 VTAIL.n588 12.0247
R598 VTAIL.n528 VTAIL.n432 12.0247
R599 VTAIL.n492 VTAIL.n450 12.0247
R600 VTAIL.n483 VTAIL.n482 12.0247
R601 VTAIL.n420 VTAIL.n324 12.0247
R602 VTAIL.n384 VTAIL.n342 12.0247
R603 VTAIL.n375 VTAIL.n374 12.0247
R604 VTAIL.n798 VTAIL.n776 11.249
R605 VTAIL.n816 VTAIL.n815 11.249
R606 VTAIL.n847 VTAIL.n754 11.249
R607 VTAIL.n50 VTAIL.n28 11.249
R608 VTAIL.n68 VTAIL.n67 11.249
R609 VTAIL.n99 VTAIL.n6 11.249
R610 VTAIL.n156 VTAIL.n134 11.249
R611 VTAIL.n174 VTAIL.n173 11.249
R612 VTAIL.n205 VTAIL.n112 11.249
R613 VTAIL.n264 VTAIL.n242 11.249
R614 VTAIL.n282 VTAIL.n281 11.249
R615 VTAIL.n313 VTAIL.n220 11.249
R616 VTAIL.n741 VTAIL.n648 11.249
R617 VTAIL.n710 VTAIL.n709 11.249
R618 VTAIL.n693 VTAIL.n670 11.249
R619 VTAIL.n633 VTAIL.n540 11.249
R620 VTAIL.n602 VTAIL.n601 11.249
R621 VTAIL.n585 VTAIL.n562 11.249
R622 VTAIL.n527 VTAIL.n434 11.249
R623 VTAIL.n496 VTAIL.n495 11.249
R624 VTAIL.n479 VTAIL.n456 11.249
R625 VTAIL.n419 VTAIL.n326 11.249
R626 VTAIL.n388 VTAIL.n387 11.249
R627 VTAIL.n371 VTAIL.n348 11.249
R628 VTAIL.n785 VTAIL.n783 10.7239
R629 VTAIL.n37 VTAIL.n35 10.7239
R630 VTAIL.n143 VTAIL.n141 10.7239
R631 VTAIL.n251 VTAIL.n249 10.7239
R632 VTAIL.n680 VTAIL.n678 10.7239
R633 VTAIL.n572 VTAIL.n570 10.7239
R634 VTAIL.n466 VTAIL.n464 10.7239
R635 VTAIL.n358 VTAIL.n356 10.7239
R636 VTAIL.n797 VTAIL.n778 10.4732
R637 VTAIL.n819 VTAIL.n768 10.4732
R638 VTAIL.n844 VTAIL.n843 10.4732
R639 VTAIL.n49 VTAIL.n30 10.4732
R640 VTAIL.n71 VTAIL.n20 10.4732
R641 VTAIL.n96 VTAIL.n95 10.4732
R642 VTAIL.n155 VTAIL.n136 10.4732
R643 VTAIL.n177 VTAIL.n126 10.4732
R644 VTAIL.n202 VTAIL.n201 10.4732
R645 VTAIL.n263 VTAIL.n244 10.4732
R646 VTAIL.n285 VTAIL.n234 10.4732
R647 VTAIL.n310 VTAIL.n309 10.4732
R648 VTAIL.n738 VTAIL.n737 10.4732
R649 VTAIL.n713 VTAIL.n662 10.4732
R650 VTAIL.n692 VTAIL.n673 10.4732
R651 VTAIL.n630 VTAIL.n629 10.4732
R652 VTAIL.n605 VTAIL.n554 10.4732
R653 VTAIL.n584 VTAIL.n565 10.4732
R654 VTAIL.n524 VTAIL.n523 10.4732
R655 VTAIL.n499 VTAIL.n448 10.4732
R656 VTAIL.n478 VTAIL.n459 10.4732
R657 VTAIL.n416 VTAIL.n415 10.4732
R658 VTAIL.n391 VTAIL.n340 10.4732
R659 VTAIL.n370 VTAIL.n351 10.4732
R660 VTAIL.n794 VTAIL.n793 9.69747
R661 VTAIL.n820 VTAIL.n766 9.69747
R662 VTAIL.n840 VTAIL.n756 9.69747
R663 VTAIL.n46 VTAIL.n45 9.69747
R664 VTAIL.n72 VTAIL.n18 9.69747
R665 VTAIL.n92 VTAIL.n8 9.69747
R666 VTAIL.n152 VTAIL.n151 9.69747
R667 VTAIL.n178 VTAIL.n124 9.69747
R668 VTAIL.n198 VTAIL.n114 9.69747
R669 VTAIL.n260 VTAIL.n259 9.69747
R670 VTAIL.n286 VTAIL.n232 9.69747
R671 VTAIL.n306 VTAIL.n222 9.69747
R672 VTAIL.n734 VTAIL.n650 9.69747
R673 VTAIL.n714 VTAIL.n660 9.69747
R674 VTAIL.n689 VTAIL.n688 9.69747
R675 VTAIL.n626 VTAIL.n542 9.69747
R676 VTAIL.n606 VTAIL.n552 9.69747
R677 VTAIL.n581 VTAIL.n580 9.69747
R678 VTAIL.n520 VTAIL.n436 9.69747
R679 VTAIL.n500 VTAIL.n446 9.69747
R680 VTAIL.n475 VTAIL.n474 9.69747
R681 VTAIL.n412 VTAIL.n328 9.69747
R682 VTAIL.n392 VTAIL.n338 9.69747
R683 VTAIL.n367 VTAIL.n366 9.69747
R684 VTAIL.n854 VTAIL.n853 9.45567
R685 VTAIL.n106 VTAIL.n105 9.45567
R686 VTAIL.n212 VTAIL.n211 9.45567
R687 VTAIL.n320 VTAIL.n319 9.45567
R688 VTAIL.n748 VTAIL.n747 9.45567
R689 VTAIL.n640 VTAIL.n639 9.45567
R690 VTAIL.n534 VTAIL.n533 9.45567
R691 VTAIL.n426 VTAIL.n425 9.45567
R692 VTAIL.n829 VTAIL.n828 9.3005
R693 VTAIL.n764 VTAIL.n763 9.3005
R694 VTAIL.n823 VTAIL.n822 9.3005
R695 VTAIL.n821 VTAIL.n820 9.3005
R696 VTAIL.n768 VTAIL.n767 9.3005
R697 VTAIL.n815 VTAIL.n814 9.3005
R698 VTAIL.n813 VTAIL.n812 9.3005
R699 VTAIL.n772 VTAIL.n771 9.3005
R700 VTAIL.n787 VTAIL.n786 9.3005
R701 VTAIL.n789 VTAIL.n788 9.3005
R702 VTAIL.n780 VTAIL.n779 9.3005
R703 VTAIL.n795 VTAIL.n794 9.3005
R704 VTAIL.n797 VTAIL.n796 9.3005
R705 VTAIL.n776 VTAIL.n775 9.3005
R706 VTAIL.n804 VTAIL.n803 9.3005
R707 VTAIL.n806 VTAIL.n805 9.3005
R708 VTAIL.n831 VTAIL.n830 9.3005
R709 VTAIL.n760 VTAIL.n759 9.3005
R710 VTAIL.n837 VTAIL.n836 9.3005
R711 VTAIL.n839 VTAIL.n838 9.3005
R712 VTAIL.n756 VTAIL.n755 9.3005
R713 VTAIL.n845 VTAIL.n844 9.3005
R714 VTAIL.n847 VTAIL.n846 9.3005
R715 VTAIL.n752 VTAIL.n751 9.3005
R716 VTAIL.n853 VTAIL.n852 9.3005
R717 VTAIL.n81 VTAIL.n80 9.3005
R718 VTAIL.n16 VTAIL.n15 9.3005
R719 VTAIL.n75 VTAIL.n74 9.3005
R720 VTAIL.n73 VTAIL.n72 9.3005
R721 VTAIL.n20 VTAIL.n19 9.3005
R722 VTAIL.n67 VTAIL.n66 9.3005
R723 VTAIL.n65 VTAIL.n64 9.3005
R724 VTAIL.n24 VTAIL.n23 9.3005
R725 VTAIL.n39 VTAIL.n38 9.3005
R726 VTAIL.n41 VTAIL.n40 9.3005
R727 VTAIL.n32 VTAIL.n31 9.3005
R728 VTAIL.n47 VTAIL.n46 9.3005
R729 VTAIL.n49 VTAIL.n48 9.3005
R730 VTAIL.n28 VTAIL.n27 9.3005
R731 VTAIL.n56 VTAIL.n55 9.3005
R732 VTAIL.n58 VTAIL.n57 9.3005
R733 VTAIL.n83 VTAIL.n82 9.3005
R734 VTAIL.n12 VTAIL.n11 9.3005
R735 VTAIL.n89 VTAIL.n88 9.3005
R736 VTAIL.n91 VTAIL.n90 9.3005
R737 VTAIL.n8 VTAIL.n7 9.3005
R738 VTAIL.n97 VTAIL.n96 9.3005
R739 VTAIL.n99 VTAIL.n98 9.3005
R740 VTAIL.n4 VTAIL.n3 9.3005
R741 VTAIL.n105 VTAIL.n104 9.3005
R742 VTAIL.n187 VTAIL.n186 9.3005
R743 VTAIL.n122 VTAIL.n121 9.3005
R744 VTAIL.n181 VTAIL.n180 9.3005
R745 VTAIL.n179 VTAIL.n178 9.3005
R746 VTAIL.n126 VTAIL.n125 9.3005
R747 VTAIL.n173 VTAIL.n172 9.3005
R748 VTAIL.n171 VTAIL.n170 9.3005
R749 VTAIL.n130 VTAIL.n129 9.3005
R750 VTAIL.n145 VTAIL.n144 9.3005
R751 VTAIL.n147 VTAIL.n146 9.3005
R752 VTAIL.n138 VTAIL.n137 9.3005
R753 VTAIL.n153 VTAIL.n152 9.3005
R754 VTAIL.n155 VTAIL.n154 9.3005
R755 VTAIL.n134 VTAIL.n133 9.3005
R756 VTAIL.n162 VTAIL.n161 9.3005
R757 VTAIL.n164 VTAIL.n163 9.3005
R758 VTAIL.n189 VTAIL.n188 9.3005
R759 VTAIL.n118 VTAIL.n117 9.3005
R760 VTAIL.n195 VTAIL.n194 9.3005
R761 VTAIL.n197 VTAIL.n196 9.3005
R762 VTAIL.n114 VTAIL.n113 9.3005
R763 VTAIL.n203 VTAIL.n202 9.3005
R764 VTAIL.n205 VTAIL.n204 9.3005
R765 VTAIL.n110 VTAIL.n109 9.3005
R766 VTAIL.n211 VTAIL.n210 9.3005
R767 VTAIL.n295 VTAIL.n294 9.3005
R768 VTAIL.n230 VTAIL.n229 9.3005
R769 VTAIL.n289 VTAIL.n288 9.3005
R770 VTAIL.n287 VTAIL.n286 9.3005
R771 VTAIL.n234 VTAIL.n233 9.3005
R772 VTAIL.n281 VTAIL.n280 9.3005
R773 VTAIL.n279 VTAIL.n278 9.3005
R774 VTAIL.n238 VTAIL.n237 9.3005
R775 VTAIL.n253 VTAIL.n252 9.3005
R776 VTAIL.n255 VTAIL.n254 9.3005
R777 VTAIL.n246 VTAIL.n245 9.3005
R778 VTAIL.n261 VTAIL.n260 9.3005
R779 VTAIL.n263 VTAIL.n262 9.3005
R780 VTAIL.n242 VTAIL.n241 9.3005
R781 VTAIL.n270 VTAIL.n269 9.3005
R782 VTAIL.n272 VTAIL.n271 9.3005
R783 VTAIL.n297 VTAIL.n296 9.3005
R784 VTAIL.n226 VTAIL.n225 9.3005
R785 VTAIL.n303 VTAIL.n302 9.3005
R786 VTAIL.n305 VTAIL.n304 9.3005
R787 VTAIL.n222 VTAIL.n221 9.3005
R788 VTAIL.n311 VTAIL.n310 9.3005
R789 VTAIL.n313 VTAIL.n312 9.3005
R790 VTAIL.n218 VTAIL.n217 9.3005
R791 VTAIL.n319 VTAIL.n318 9.3005
R792 VTAIL.n682 VTAIL.n681 9.3005
R793 VTAIL.n684 VTAIL.n683 9.3005
R794 VTAIL.n675 VTAIL.n674 9.3005
R795 VTAIL.n690 VTAIL.n689 9.3005
R796 VTAIL.n692 VTAIL.n691 9.3005
R797 VTAIL.n670 VTAIL.n669 9.3005
R798 VTAIL.n698 VTAIL.n697 9.3005
R799 VTAIL.n700 VTAIL.n699 9.3005
R800 VTAIL.n654 VTAIL.n653 9.3005
R801 VTAIL.n731 VTAIL.n730 9.3005
R802 VTAIL.n733 VTAIL.n732 9.3005
R803 VTAIL.n650 VTAIL.n649 9.3005
R804 VTAIL.n739 VTAIL.n738 9.3005
R805 VTAIL.n741 VTAIL.n740 9.3005
R806 VTAIL.n646 VTAIL.n645 9.3005
R807 VTAIL.n747 VTAIL.n746 9.3005
R808 VTAIL.n725 VTAIL.n724 9.3005
R809 VTAIL.n723 VTAIL.n722 9.3005
R810 VTAIL.n658 VTAIL.n657 9.3005
R811 VTAIL.n717 VTAIL.n716 9.3005
R812 VTAIL.n715 VTAIL.n714 9.3005
R813 VTAIL.n662 VTAIL.n661 9.3005
R814 VTAIL.n709 VTAIL.n708 9.3005
R815 VTAIL.n707 VTAIL.n706 9.3005
R816 VTAIL.n666 VTAIL.n665 9.3005
R817 VTAIL.n574 VTAIL.n573 9.3005
R818 VTAIL.n576 VTAIL.n575 9.3005
R819 VTAIL.n567 VTAIL.n566 9.3005
R820 VTAIL.n582 VTAIL.n581 9.3005
R821 VTAIL.n584 VTAIL.n583 9.3005
R822 VTAIL.n562 VTAIL.n561 9.3005
R823 VTAIL.n590 VTAIL.n589 9.3005
R824 VTAIL.n592 VTAIL.n591 9.3005
R825 VTAIL.n546 VTAIL.n545 9.3005
R826 VTAIL.n623 VTAIL.n622 9.3005
R827 VTAIL.n625 VTAIL.n624 9.3005
R828 VTAIL.n542 VTAIL.n541 9.3005
R829 VTAIL.n631 VTAIL.n630 9.3005
R830 VTAIL.n633 VTAIL.n632 9.3005
R831 VTAIL.n538 VTAIL.n537 9.3005
R832 VTAIL.n639 VTAIL.n638 9.3005
R833 VTAIL.n617 VTAIL.n616 9.3005
R834 VTAIL.n615 VTAIL.n614 9.3005
R835 VTAIL.n550 VTAIL.n549 9.3005
R836 VTAIL.n609 VTAIL.n608 9.3005
R837 VTAIL.n607 VTAIL.n606 9.3005
R838 VTAIL.n554 VTAIL.n553 9.3005
R839 VTAIL.n601 VTAIL.n600 9.3005
R840 VTAIL.n599 VTAIL.n598 9.3005
R841 VTAIL.n558 VTAIL.n557 9.3005
R842 VTAIL.n468 VTAIL.n467 9.3005
R843 VTAIL.n470 VTAIL.n469 9.3005
R844 VTAIL.n461 VTAIL.n460 9.3005
R845 VTAIL.n476 VTAIL.n475 9.3005
R846 VTAIL.n478 VTAIL.n477 9.3005
R847 VTAIL.n456 VTAIL.n455 9.3005
R848 VTAIL.n484 VTAIL.n483 9.3005
R849 VTAIL.n486 VTAIL.n485 9.3005
R850 VTAIL.n440 VTAIL.n439 9.3005