* NGSPICE file created from diff_pair_sample_0086.ext - technology: sky130A

.subckt diff_pair_sample_0086 VTAIL VN VP B VDD2 VDD1
X0 VTAIL.t11 VP.t0 VDD1.t5 w_n3506_n4218# sky130_fd_pr__pfet_01v8 ad=2.68125 pd=16.58 as=2.68125 ps=16.58 w=16.25 l=2.84
X1 VTAIL.t10 VP.t1 VDD1.t0 w_n3506_n4218# sky130_fd_pr__pfet_01v8 ad=2.68125 pd=16.58 as=2.68125 ps=16.58 w=16.25 l=2.84
X2 VDD2.t5 VN.t0 VTAIL.t4 w_n3506_n4218# sky130_fd_pr__pfet_01v8 ad=6.3375 pd=33.28 as=2.68125 ps=16.58 w=16.25 l=2.84
X3 VTAIL.t5 VN.t1 VDD2.t4 w_n3506_n4218# sky130_fd_pr__pfet_01v8 ad=2.68125 pd=16.58 as=2.68125 ps=16.58 w=16.25 l=2.84
X4 VDD1.t4 VP.t2 VTAIL.t9 w_n3506_n4218# sky130_fd_pr__pfet_01v8 ad=2.68125 pd=16.58 as=6.3375 ps=33.28 w=16.25 l=2.84
X5 B.t11 B.t9 B.t10 w_n3506_n4218# sky130_fd_pr__pfet_01v8 ad=6.3375 pd=33.28 as=0 ps=0 w=16.25 l=2.84
X6 VDD2.t3 VN.t2 VTAIL.t3 w_n3506_n4218# sky130_fd_pr__pfet_01v8 ad=2.68125 pd=16.58 as=6.3375 ps=33.28 w=16.25 l=2.84
X7 VDD1.t1 VP.t3 VTAIL.t8 w_n3506_n4218# sky130_fd_pr__pfet_01v8 ad=6.3375 pd=33.28 as=2.68125 ps=16.58 w=16.25 l=2.84
X8 B.t8 B.t6 B.t7 w_n3506_n4218# sky130_fd_pr__pfet_01v8 ad=6.3375 pd=33.28 as=0 ps=0 w=16.25 l=2.84
X9 VDD1.t3 VP.t4 VTAIL.t7 w_n3506_n4218# sky130_fd_pr__pfet_01v8 ad=2.68125 pd=16.58 as=6.3375 ps=33.28 w=16.25 l=2.84
X10 VTAIL.t1 VN.t3 VDD2.t2 w_n3506_n4218# sky130_fd_pr__pfet_01v8 ad=2.68125 pd=16.58 as=2.68125 ps=16.58 w=16.25 l=2.84
X11 VDD2.t1 VN.t4 VTAIL.t2 w_n3506_n4218# sky130_fd_pr__pfet_01v8 ad=2.68125 pd=16.58 as=6.3375 ps=33.28 w=16.25 l=2.84
X12 VDD2.t0 VN.t5 VTAIL.t0 w_n3506_n4218# sky130_fd_pr__pfet_01v8 ad=6.3375 pd=33.28 as=2.68125 ps=16.58 w=16.25 l=2.84
X13 B.t5 B.t3 B.t4 w_n3506_n4218# sky130_fd_pr__pfet_01v8 ad=6.3375 pd=33.28 as=0 ps=0 w=16.25 l=2.84
X14 B.t2 B.t0 B.t1 w_n3506_n4218# sky130_fd_pr__pfet_01v8 ad=6.3375 pd=33.28 as=0 ps=0 w=16.25 l=2.84
X15 VDD1.t2 VP.t5 VTAIL.t6 w_n3506_n4218# sky130_fd_pr__pfet_01v8 ad=6.3375 pd=33.28 as=2.68125 ps=16.58 w=16.25 l=2.84
R0 VP.n11 VP.t5 169.617
R1 VP.n13 VP.n10 161.3
R2 VP.n15 VP.n14 161.3
R3 VP.n16 VP.n9 161.3
R4 VP.n18 VP.n17 161.3
R5 VP.n19 VP.n8 161.3
R6 VP.n21 VP.n20 161.3
R7 VP.n43 VP.n42 161.3
R8 VP.n41 VP.n1 161.3
R9 VP.n40 VP.n39 161.3
R10 VP.n38 VP.n2 161.3
R11 VP.n37 VP.n36 161.3
R12 VP.n35 VP.n3 161.3
R13 VP.n33 VP.n32 161.3
R14 VP.n31 VP.n4 161.3
R15 VP.n30 VP.n29 161.3
R16 VP.n28 VP.n5 161.3
R17 VP.n27 VP.n26 161.3
R18 VP.n25 VP.n6 161.3
R19 VP.n23 VP.t3 137.897
R20 VP.n34 VP.t1 137.897
R21 VP.n0 VP.t4 137.897
R22 VP.n7 VP.t2 137.897
R23 VP.n12 VP.t0 137.897
R24 VP.n24 VP.n23 69.5151
R25 VP.n44 VP.n0 69.5151
R26 VP.n22 VP.n7 69.5151
R27 VP.n12 VP.n11 61.4624
R28 VP.n29 VP.n28 56.5193
R29 VP.n40 VP.n2 56.5193
R30 VP.n18 VP.n9 56.5193
R31 VP.n24 VP.n22 52.9274
R32 VP.n27 VP.n6 24.4675
R33 VP.n28 VP.n27 24.4675
R34 VP.n29 VP.n4 24.4675
R35 VP.n33 VP.n4 24.4675
R36 VP.n36 VP.n35 24.4675
R37 VP.n36 VP.n2 24.4675
R38 VP.n41 VP.n40 24.4675
R39 VP.n42 VP.n41 24.4675
R40 VP.n19 VP.n18 24.4675
R41 VP.n20 VP.n19 24.4675
R42 VP.n14 VP.n13 24.4675
R43 VP.n14 VP.n9 24.4675
R44 VP.n23 VP.n6 20.5528
R45 VP.n42 VP.n0 20.5528
R46 VP.n20 VP.n7 20.5528
R47 VP.n34 VP.n33 12.234
R48 VP.n35 VP.n34 12.234
R49 VP.n13 VP.n12 12.234
R50 VP.n11 VP.n10 5.514
R51 VP.n22 VP.n21 0.354971
R52 VP.n25 VP.n24 0.354971
R53 VP.n44 VP.n43 0.354971
R54 VP VP.n44 0.26696
R55 VP.n15 VP.n10 0.189894
R56 VP.n16 VP.n15 0.189894
R57 VP.n17 VP.n16 0.189894
R58 VP.n17 VP.n8 0.189894
R59 VP.n21 VP.n8 0.189894
R60 VP.n26 VP.n25 0.189894
R61 VP.n26 VP.n5 0.189894
R62 VP.n30 VP.n5 0.189894
R63 VP.n31 VP.n30 0.189894
R64 VP.n32 VP.n31 0.189894
R65 VP.n32 VP.n3 0.189894
R66 VP.n37 VP.n3 0.189894
R67 VP.n38 VP.n37 0.189894
R68 VP.n39 VP.n38 0.189894
R69 VP.n39 VP.n1 0.189894
R70 VP.n43 VP.n1 0.189894
R71 VDD1.n84 VDD1.n0 756.745
R72 VDD1.n173 VDD1.n89 756.745
R73 VDD1.n85 VDD1.n84 585
R74 VDD1.n83 VDD1.n82 585
R75 VDD1.n4 VDD1.n3 585
R76 VDD1.n77 VDD1.n76 585
R77 VDD1.n75 VDD1.n6 585
R78 VDD1.n74 VDD1.n73 585
R79 VDD1.n9 VDD1.n7 585
R80 VDD1.n68 VDD1.n67 585
R81 VDD1.n66 VDD1.n65 585
R82 VDD1.n13 VDD1.n12 585
R83 VDD1.n60 VDD1.n59 585
R84 VDD1.n58 VDD1.n57 585
R85 VDD1.n17 VDD1.n16 585
R86 VDD1.n52 VDD1.n51 585
R87 VDD1.n50 VDD1.n49 585
R88 VDD1.n21 VDD1.n20 585
R89 VDD1.n44 VDD1.n43 585
R90 VDD1.n42 VDD1.n41 585
R91 VDD1.n25 VDD1.n24 585
R92 VDD1.n36 VDD1.n35 585
R93 VDD1.n34 VDD1.n33 585
R94 VDD1.n29 VDD1.n28 585
R95 VDD1.n117 VDD1.n116 585
R96 VDD1.n122 VDD1.n121 585
R97 VDD1.n124 VDD1.n123 585
R98 VDD1.n113 VDD1.n112 585
R99 VDD1.n130 VDD1.n129 585
R100 VDD1.n132 VDD1.n131 585
R101 VDD1.n109 VDD1.n108 585
R102 VDD1.n138 VDD1.n137 585
R103 VDD1.n140 VDD1.n139 585
R104 VDD1.n105 VDD1.n104 585
R105 VDD1.n146 VDD1.n145 585
R106 VDD1.n148 VDD1.n147 585
R107 VDD1.n101 VDD1.n100 585
R108 VDD1.n154 VDD1.n153 585
R109 VDD1.n156 VDD1.n155 585
R110 VDD1.n97 VDD1.n96 585
R111 VDD1.n163 VDD1.n162 585
R112 VDD1.n164 VDD1.n95 585
R113 VDD1.n166 VDD1.n165 585
R114 VDD1.n93 VDD1.n92 585
R115 VDD1.n172 VDD1.n171 585
R116 VDD1.n174 VDD1.n173 585
R117 VDD1.n30 VDD1.t2 327.466
R118 VDD1.n118 VDD1.t1 327.466
R119 VDD1.n84 VDD1.n83 171.744
R120 VDD1.n83 VDD1.n3 171.744
R121 VDD1.n76 VDD1.n3 171.744
R122 VDD1.n76 VDD1.n75 171.744
R123 VDD1.n75 VDD1.n74 171.744
R124 VDD1.n74 VDD1.n7 171.744
R125 VDD1.n67 VDD1.n7 171.744
R126 VDD1.n67 VDD1.n66 171.744
R127 VDD1.n66 VDD1.n12 171.744
R128 VDD1.n59 VDD1.n12 171.744
R129 VDD1.n59 VDD1.n58 171.744
R130 VDD1.n58 VDD1.n16 171.744
R131 VDD1.n51 VDD1.n16 171.744
R132 VDD1.n51 VDD1.n50 171.744
R133 VDD1.n50 VDD1.n20 171.744
R134 VDD1.n43 VDD1.n20 171.744
R135 VDD1.n43 VDD1.n42 171.744
R136 VDD1.n42 VDD1.n24 171.744
R137 VDD1.n35 VDD1.n24 171.744
R138 VDD1.n35 VDD1.n34 171.744
R139 VDD1.n34 VDD1.n28 171.744
R140 VDD1.n122 VDD1.n116 171.744
R141 VDD1.n123 VDD1.n122 171.744
R142 VDD1.n123 VDD1.n112 171.744
R143 VDD1.n130 VDD1.n112 171.744
R144 VDD1.n131 VDD1.n130 171.744
R145 VDD1.n131 VDD1.n108 171.744
R146 VDD1.n138 VDD1.n108 171.744
R147 VDD1.n139 VDD1.n138 171.744
R148 VDD1.n139 VDD1.n104 171.744
R149 VDD1.n146 VDD1.n104 171.744
R150 VDD1.n147 VDD1.n146 171.744
R151 VDD1.n147 VDD1.n100 171.744
R152 VDD1.n154 VDD1.n100 171.744
R153 VDD1.n155 VDD1.n154 171.744
R154 VDD1.n155 VDD1.n96 171.744
R155 VDD1.n163 VDD1.n96 171.744
R156 VDD1.n164 VDD1.n163 171.744
R157 VDD1.n165 VDD1.n164 171.744
R158 VDD1.n165 VDD1.n92 171.744
R159 VDD1.n172 VDD1.n92 171.744
R160 VDD1.n173 VDD1.n172 171.744
R161 VDD1.t2 VDD1.n28 85.8723
R162 VDD1.t1 VDD1.n116 85.8723
R163 VDD1.n179 VDD1.n178 73.7267
R164 VDD1.n181 VDD1.n180 73.0989
R165 VDD1 VDD1.n88 54.2689
R166 VDD1.n179 VDD1.n177 54.1553
R167 VDD1.n181 VDD1.n179 48.5548
R168 VDD1.n30 VDD1.n29 16.3895
R169 VDD1.n118 VDD1.n117 16.3895
R170 VDD1.n77 VDD1.n6 13.1884
R171 VDD1.n166 VDD1.n95 13.1884
R172 VDD1.n78 VDD1.n4 12.8005
R173 VDD1.n73 VDD1.n8 12.8005
R174 VDD1.n33 VDD1.n32 12.8005
R175 VDD1.n121 VDD1.n120 12.8005
R176 VDD1.n162 VDD1.n161 12.8005
R177 VDD1.n167 VDD1.n93 12.8005
R178 VDD1.n82 VDD1.n81 12.0247
R179 VDD1.n72 VDD1.n9 12.0247
R180 VDD1.n36 VDD1.n27 12.0247
R181 VDD1.n124 VDD1.n115 12.0247
R182 VDD1.n160 VDD1.n97 12.0247
R183 VDD1.n171 VDD1.n170 12.0247
R184 VDD1.n85 VDD1.n2 11.249
R185 VDD1.n69 VDD1.n68 11.249
R186 VDD1.n37 VDD1.n25 11.249
R187 VDD1.n125 VDD1.n113 11.249
R188 VDD1.n157 VDD1.n156 11.249
R189 VDD1.n174 VDD1.n91 11.249
R190 VDD1.n86 VDD1.n0 10.4732
R191 VDD1.n65 VDD1.n11 10.4732
R192 VDD1.n41 VDD1.n40 10.4732
R193 VDD1.n129 VDD1.n128 10.4732
R194 VDD1.n153 VDD1.n99 10.4732
R195 VDD1.n175 VDD1.n89 10.4732
R196 VDD1.n64 VDD1.n13 9.69747
R197 VDD1.n44 VDD1.n23 9.69747
R198 VDD1.n132 VDD1.n111 9.69747
R199 VDD1.n152 VDD1.n101 9.69747
R200 VDD1.n88 VDD1.n87 9.45567
R201 VDD1.n177 VDD1.n176 9.45567
R202 VDD1.n56 VDD1.n55 9.3005
R203 VDD1.n15 VDD1.n14 9.3005
R204 VDD1.n62 VDD1.n61 9.3005
R205 VDD1.n64 VDD1.n63 9.3005
R206 VDD1.n11 VDD1.n10 9.3005
R207 VDD1.n70 VDD1.n69 9.3005
R208 VDD1.n72 VDD1.n71 9.3005
R209 VDD1.n8 VDD1.n5 9.3005
R210 VDD1.n87 VDD1.n86 9.3005
R211 VDD1.n2 VDD1.n1 9.3005
R212 VDD1.n81 VDD1.n80 9.3005
R213 VDD1.n79 VDD1.n78 9.3005
R214 VDD1.n54 VDD1.n53 9.3005
R215 VDD1.n19 VDD1.n18 9.3005
R216 VDD1.n48 VDD1.n47 9.3005
R217 VDD1.n46 VDD1.n45 9.3005
R218 VDD1.n23 VDD1.n22 9.3005
R219 VDD1.n40 VDD1.n39 9.3005
R220 VDD1.n38 VDD1.n37 9.3005
R221 VDD1.n27 VDD1.n26 9.3005
R222 VDD1.n32 VDD1.n31 9.3005
R223 VDD1.n176 VDD1.n175 9.3005
R224 VDD1.n91 VDD1.n90 9.3005
R225 VDD1.n170 VDD1.n169 9.3005
R226 VDD1.n168 VDD1.n167 9.3005
R227 VDD1.n107 VDD1.n106 9.3005
R228 VDD1.n136 VDD1.n135 9.3005
R229 VDD1.n134 VDD1.n133 9.3005
R230 VDD1.n111 VDD1.n110 9.3005
R231 VDD1.n128 VDD1.n127 9.3005
R232 VDD1.n126 VDD1.n125 9.3005
R233 VDD1.n115 VDD1.n114 9.3005
R234 VDD1.n120 VDD1.n119 9.3005
R235 VDD1.n142 VDD1.n141 9.3005
R236 VDD1.n144 VDD1.n143 9.3005
R237 VDD1.n103 VDD1.n102 9.3005
R238 VDD1.n150 VDD1.n149 9.3005
R239 VDD1.n152 VDD1.n151 9.3005
R240 VDD1.n99 VDD1.n98 9.3005
R241 VDD1.n158 VDD1.n157 9.3005
R242 VDD1.n160 VDD1.n159 9.3005
R243 VDD1.n161 VDD1.n94 9.3005
R244 VDD1.n61 VDD1.n60 8.92171
R245 VDD1.n45 VDD1.n21 8.92171
R246 VDD1.n133 VDD1.n109 8.92171
R247 VDD1.n149 VDD1.n148 8.92171
R248 VDD1.n57 VDD1.n15 8.14595
R249 VDD1.n49 VDD1.n48 8.14595
R250 VDD1.n137 VDD1.n136 8.14595
R251 VDD1.n145 VDD1.n103 8.14595
R252 VDD1.n56 VDD1.n17 7.3702
R253 VDD1.n52 VDD1.n19 7.3702
R254 VDD1.n140 VDD1.n107 7.3702
R255 VDD1.n144 VDD1.n105 7.3702
R256 VDD1.n53 VDD1.n17 6.59444
R257 VDD1.n53 VDD1.n52 6.59444
R258 VDD1.n141 VDD1.n140 6.59444
R259 VDD1.n141 VDD1.n105 6.59444
R260 VDD1.n57 VDD1.n56 5.81868
R261 VDD1.n49 VDD1.n19 5.81868
R262 VDD1.n137 VDD1.n107 5.81868
R263 VDD1.n145 VDD1.n144 5.81868
R264 VDD1.n60 VDD1.n15 5.04292
R265 VDD1.n48 VDD1.n21 5.04292
R266 VDD1.n136 VDD1.n109 5.04292
R267 VDD1.n148 VDD1.n103 5.04292
R268 VDD1.n61 VDD1.n13 4.26717
R269 VDD1.n45 VDD1.n44 4.26717
R270 VDD1.n133 VDD1.n132 4.26717
R271 VDD1.n149 VDD1.n101 4.26717
R272 VDD1.n31 VDD1.n30 3.70982
R273 VDD1.n119 VDD1.n118 3.70982
R274 VDD1.n88 VDD1.n0 3.49141
R275 VDD1.n65 VDD1.n64 3.49141
R276 VDD1.n41 VDD1.n23 3.49141
R277 VDD1.n129 VDD1.n111 3.49141
R278 VDD1.n153 VDD1.n152 3.49141
R279 VDD1.n177 VDD1.n89 3.49141
R280 VDD1.n86 VDD1.n85 2.71565
R281 VDD1.n68 VDD1.n11 2.71565
R282 VDD1.n40 VDD1.n25 2.71565
R283 VDD1.n128 VDD1.n113 2.71565
R284 VDD1.n156 VDD1.n99 2.71565
R285 VDD1.n175 VDD1.n174 2.71565
R286 VDD1.n180 VDD1.t5 2.00081
R287 VDD1.n180 VDD1.t4 2.00081
R288 VDD1.n178 VDD1.t0 2.00081
R289 VDD1.n178 VDD1.t3 2.00081
R290 VDD1.n82 VDD1.n2 1.93989
R291 VDD1.n69 VDD1.n9 1.93989
R292 VDD1.n37 VDD1.n36 1.93989
R293 VDD1.n125 VDD1.n124 1.93989
R294 VDD1.n157 VDD1.n97 1.93989
R295 VDD1.n171 VDD1.n91 1.93989
R296 VDD1.n81 VDD1.n4 1.16414
R297 VDD1.n73 VDD1.n72 1.16414
R298 VDD1.n33 VDD1.n27 1.16414
R299 VDD1.n121 VDD1.n115 1.16414
R300 VDD1.n162 VDD1.n160 1.16414
R301 VDD1.n170 VDD1.n93 1.16414
R302 VDD1 VDD1.n181 0.6255
R303 VDD1.n78 VDD1.n77 0.388379
R304 VDD1.n8 VDD1.n6 0.388379
R305 VDD1.n32 VDD1.n29 0.388379
R306 VDD1.n120 VDD1.n117 0.388379
R307 VDD1.n161 VDD1.n95 0.388379
R308 VDD1.n167 VDD1.n166 0.388379
R309 VDD1.n87 VDD1.n1 0.155672
R310 VDD1.n80 VDD1.n1 0.155672
R311 VDD1.n80 VDD1.n79 0.155672
R312 VDD1.n79 VDD1.n5 0.155672
R313 VDD1.n71 VDD1.n5 0.155672
R314 VDD1.n71 VDD1.n70 0.155672
R315 VDD1.n70 VDD1.n10 0.155672
R316 VDD1.n63 VDD1.n10 0.155672
R317 VDD1.n63 VDD1.n62 0.155672
R318 VDD1.n62 VDD1.n14 0.155672
R319 VDD1.n55 VDD1.n14 0.155672
R320 VDD1.n55 VDD1.n54 0.155672
R321 VDD1.n54 VDD1.n18 0.155672
R322 VDD1.n47 VDD1.n18 0.155672
R323 VDD1.n47 VDD1.n46 0.155672
R324 VDD1.n46 VDD1.n22 0.155672
R325 VDD1.n39 VDD1.n22 0.155672
R326 VDD1.n39 VDD1.n38 0.155672
R327 VDD1.n38 VDD1.n26 0.155672
R328 VDD1.n31 VDD1.n26 0.155672
R329 VDD1.n119 VDD1.n114 0.155672
R330 VDD1.n126 VDD1.n114 0.155672
R331 VDD1.n127 VDD1.n126 0.155672
R332 VDD1.n127 VDD1.n110 0.155672
R333 VDD1.n134 VDD1.n110 0.155672
R334 VDD1.n135 VDD1.n134 0.155672
R335 VDD1.n135 VDD1.n106 0.155672
R336 VDD1.n142 VDD1.n106 0.155672
R337 VDD1.n143 VDD1.n142 0.155672
R338 VDD1.n143 VDD1.n102 0.155672
R339 VDD1.n150 VDD1.n102 0.155672
R340 VDD1.n151 VDD1.n150 0.155672
R341 VDD1.n151 VDD1.n98 0.155672
R342 VDD1.n158 VDD1.n98 0.155672
R343 VDD1.n159 VDD1.n158 0.155672
R344 VDD1.n159 VDD1.n94 0.155672
R345 VDD1.n168 VDD1.n94 0.155672
R346 VDD1.n169 VDD1.n168 0.155672
R347 VDD1.n169 VDD1.n90 0.155672
R348 VDD1.n176 VDD1.n90 0.155672
R349 VTAIL.n362 VTAIL.n278 756.745
R350 VTAIL.n86 VTAIL.n2 756.745
R351 VTAIL.n272 VTAIL.n188 756.745
R352 VTAIL.n180 VTAIL.n96 756.745
R353 VTAIL.n306 VTAIL.n305 585
R354 VTAIL.n311 VTAIL.n310 585
R355 VTAIL.n313 VTAIL.n312 585
R356 VTAIL.n302 VTAIL.n301 585
R357 VTAIL.n319 VTAIL.n318 585
R358 VTAIL.n321 VTAIL.n320 585
R359 VTAIL.n298 VTAIL.n297 585
R360 VTAIL.n327 VTAIL.n326 585
R361 VTAIL.n329 VTAIL.n328 585
R362 VTAIL.n294 VTAIL.n293 585
R363 VTAIL.n335 VTAIL.n334 585
R364 VTAIL.n337 VTAIL.n336 585
R365 VTAIL.n290 VTAIL.n289 585
R366 VTAIL.n343 VTAIL.n342 585
R367 VTAIL.n345 VTAIL.n344 585
R368 VTAIL.n286 VTAIL.n285 585
R369 VTAIL.n352 VTAIL.n351 585
R370 VTAIL.n353 VTAIL.n284 585
R371 VTAIL.n355 VTAIL.n354 585
R372 VTAIL.n282 VTAIL.n281 585
R373 VTAIL.n361 VTAIL.n360 585
R374 VTAIL.n363 VTAIL.n362 585
R375 VTAIL.n30 VTAIL.n29 585
R376 VTAIL.n35 VTAIL.n34 585
R377 VTAIL.n37 VTAIL.n36 585
R378 VTAIL.n26 VTAIL.n25 585
R379 VTAIL.n43 VTAIL.n42 585
R380 VTAIL.n45 VTAIL.n44 585
R381 VTAIL.n22 VTAIL.n21 585
R382 VTAIL.n51 VTAIL.n50 585
R383 VTAIL.n53 VTAIL.n52 585
R384 VTAIL.n18 VTAIL.n17 585
R385 VTAIL.n59 VTAIL.n58 585
R386 VTAIL.n61 VTAIL.n60 585
R387 VTAIL.n14 VTAIL.n13 585
R388 VTAIL.n67 VTAIL.n66 585
R389 VTAIL.n69 VTAIL.n68 585
R390 VTAIL.n10 VTAIL.n9 585
R391 VTAIL.n76 VTAIL.n75 585
R392 VTAIL.n77 VTAIL.n8 585
R393 VTAIL.n79 VTAIL.n78 585
R394 VTAIL.n6 VTAIL.n5 585
R395 VTAIL.n85 VTAIL.n84 585
R396 VTAIL.n87 VTAIL.n86 585
R397 VTAIL.n273 VTAIL.n272 585
R398 VTAIL.n271 VTAIL.n270 585
R399 VTAIL.n192 VTAIL.n191 585
R400 VTAIL.n265 VTAIL.n264 585
R401 VTAIL.n263 VTAIL.n194 585
R402 VTAIL.n262 VTAIL.n261 585
R403 VTAIL.n197 VTAIL.n195 585
R404 VTAIL.n256 VTAIL.n255 585
R405 VTAIL.n254 VTAIL.n253 585
R406 VTAIL.n201 VTAIL.n200 585
R407 VTAIL.n248 VTAIL.n247 585
R408 VTAIL.n246 VTAIL.n245 585
R409 VTAIL.n205 VTAIL.n204 585
R410 VTAIL.n240 VTAIL.n239 585
R411 VTAIL.n238 VTAIL.n237 585
R412 VTAIL.n209 VTAIL.n208 585
R413 VTAIL.n232 VTAIL.n231 585
R414 VTAIL.n230 VTAIL.n229 585
R415 VTAIL.n213 VTAIL.n212 585
R416 VTAIL.n224 VTAIL.n223 585
R417 VTAIL.n222 VTAIL.n221 585
R418 VTAIL.n217 VTAIL.n216 585
R419 VTAIL.n181 VTAIL.n180 585
R420 VTAIL.n179 VTAIL.n178 585
R421 VTAIL.n100 VTAIL.n99 585
R422 VTAIL.n173 VTAIL.n172 585
R423 VTAIL.n171 VTAIL.n102 585
R424 VTAIL.n170 VTAIL.n169 585
R425 VTAIL.n105 VTAIL.n103 585
R426 VTAIL.n164 VTAIL.n163 585
R427 VTAIL.n162 VTAIL.n161 585
R428 VTAIL.n109 VTAIL.n108 585
R429 VTAIL.n156 VTAIL.n155 585
R430 VTAIL.n154 VTAIL.n153 585
R431 VTAIL.n113 VTAIL.n112 585
R432 VTAIL.n148 VTAIL.n147 585
R433 VTAIL.n146 VTAIL.n145 585
R434 VTAIL.n117 VTAIL.n116 585
R435 VTAIL.n140 VTAIL.n139 585
R436 VTAIL.n138 VTAIL.n137 585
R437 VTAIL.n121 VTAIL.n120 585
R438 VTAIL.n132 VTAIL.n131 585
R439 VTAIL.n130 VTAIL.n129 585
R440 VTAIL.n125 VTAIL.n124 585
R441 VTAIL.n307 VTAIL.t2 327.466
R442 VTAIL.n31 VTAIL.t7 327.466
R443 VTAIL.n218 VTAIL.t9 327.466
R444 VTAIL.n126 VTAIL.t3 327.466
R445 VTAIL.n311 VTAIL.n305 171.744
R446 VTAIL.n312 VTAIL.n311 171.744
R447 VTAIL.n312 VTAIL.n301 171.744
R448 VTAIL.n319 VTAIL.n301 171.744
R449 VTAIL.n320 VTAIL.n319 171.744
R450 VTAIL.n320 VTAIL.n297 171.744
R451 VTAIL.n327 VTAIL.n297 171.744
R452 VTAIL.n328 VTAIL.n327 171.744
R453 VTAIL.n328 VTAIL.n293 171.744
R454 VTAIL.n335 VTAIL.n293 171.744
R455 VTAIL.n336 VTAIL.n335 171.744
R456 VTAIL.n336 VTAIL.n289 171.744
R457 VTAIL.n343 VTAIL.n289 171.744
R458 VTAIL.n344 VTAIL.n343 171.744
R459 VTAIL.n344 VTAIL.n285 171.744
R460 VTAIL.n352 VTAIL.n285 171.744
R461 VTAIL.n353 VTAIL.n352 171.744
R462 VTAIL.n354 VTAIL.n353 171.744
R463 VTAIL.n354 VTAIL.n281 171.744
R464 VTAIL.n361 VTAIL.n281 171.744
R465 VTAIL.n362 VTAIL.n361 171.744
R466 VTAIL.n35 VTAIL.n29 171.744
R467 VTAIL.n36 VTAIL.n35 171.744
R468 VTAIL.n36 VTAIL.n25 171.744
R469 VTAIL.n43 VTAIL.n25 171.744
R470 VTAIL.n44 VTAIL.n43 171.744
R471 VTAIL.n44 VTAIL.n21 171.744
R472 VTAIL.n51 VTAIL.n21 171.744
R473 VTAIL.n52 VTAIL.n51 171.744
R474 VTAIL.n52 VTAIL.n17 171.744
R475 VTAIL.n59 VTAIL.n17 171.744
R476 VTAIL.n60 VTAIL.n59 171.744
R477 VTAIL.n60 VTAIL.n13 171.744
R478 VTAIL.n67 VTAIL.n13 171.744
R479 VTAIL.n68 VTAIL.n67 171.744
R480 VTAIL.n68 VTAIL.n9 171.744
R481 VTAIL.n76 VTAIL.n9 171.744
R482 VTAIL.n77 VTAIL.n76 171.744
R483 VTAIL.n78 VTAIL.n77 171.744
R484 VTAIL.n78 VTAIL.n5 171.744
R485 VTAIL.n85 VTAIL.n5 171.744
R486 VTAIL.n86 VTAIL.n85 171.744
R487 VTAIL.n272 VTAIL.n271 171.744
R488 VTAIL.n271 VTAIL.n191 171.744
R489 VTAIL.n264 VTAIL.n191 171.744
R490 VTAIL.n264 VTAIL.n263 171.744
R491 VTAIL.n263 VTAIL.n262 171.744
R492 VTAIL.n262 VTAIL.n195 171.744
R493 VTAIL.n255 VTAIL.n195 171.744
R494 VTAIL.n255 VTAIL.n254 171.744
R495 VTAIL.n254 VTAIL.n200 171.744
R496 VTAIL.n247 VTAIL.n200 171.744
R497 VTAIL.n247 VTAIL.n246 171.744
R498 VTAIL.n246 VTAIL.n204 171.744
R499 VTAIL.n239 VTAIL.n204 171.744
R500 VTAIL.n239 VTAIL.n238 171.744
R501 VTAIL.n238 VTAIL.n208 171.744
R502 VTAIL.n231 VTAIL.n208 171.744
R503 VTAIL.n231 VTAIL.n230 171.744
R504 VTAIL.n230 VTAIL.n212 171.744
R505 VTAIL.n223 VTAIL.n212 171.744
R506 VTAIL.n223 VTAIL.n222 171.744
R507 VTAIL.n222 VTAIL.n216 171.744
R508 VTAIL.n180 VTAIL.n179 171.744
R509 VTAIL.n179 VTAIL.n99 171.744
R510 VTAIL.n172 VTAIL.n99 171.744
R511 VTAIL.n172 VTAIL.n171 171.744
R512 VTAIL.n171 VTAIL.n170 171.744
R513 VTAIL.n170 VTAIL.n103 171.744
R514 VTAIL.n163 VTAIL.n103 171.744
R515 VTAIL.n163 VTAIL.n162 171.744
R516 VTAIL.n162 VTAIL.n108 171.744
R517 VTAIL.n155 VTAIL.n108 171.744
R518 VTAIL.n155 VTAIL.n154 171.744
R519 VTAIL.n154 VTAIL.n112 171.744
R520 VTAIL.n147 VTAIL.n112 171.744
R521 VTAIL.n147 VTAIL.n146 171.744
R522 VTAIL.n146 VTAIL.n116 171.744
R523 VTAIL.n139 VTAIL.n116 171.744
R524 VTAIL.n139 VTAIL.n138 171.744
R525 VTAIL.n138 VTAIL.n120 171.744
R526 VTAIL.n131 VTAIL.n120 171.744
R527 VTAIL.n131 VTAIL.n130 171.744
R528 VTAIL.n130 VTAIL.n124 171.744
R529 VTAIL.t2 VTAIL.n305 85.8723
R530 VTAIL.t7 VTAIL.n29 85.8723
R531 VTAIL.t9 VTAIL.n216 85.8723
R532 VTAIL.t3 VTAIL.n124 85.8723
R533 VTAIL.n187 VTAIL.n186 56.4203
R534 VTAIL.n95 VTAIL.n94 56.4203
R535 VTAIL.n1 VTAIL.n0 56.4201
R536 VTAIL.n93 VTAIL.n92 56.4201
R537 VTAIL.n367 VTAIL.n366 35.4823
R538 VTAIL.n91 VTAIL.n90 35.4823
R539 VTAIL.n277 VTAIL.n276 35.4823
R540 VTAIL.n185 VTAIL.n184 35.4823
R541 VTAIL.n95 VTAIL.n93 31.841
R542 VTAIL.n367 VTAIL.n277 29.1083
R543 VTAIL.n307 VTAIL.n306 16.3895
R544 VTAIL.n31 VTAIL.n30 16.3895
R545 VTAIL.n218 VTAIL.n217 16.3895
R546 VTAIL.n126 VTAIL.n125 16.3895
R547 VTAIL.n355 VTAIL.n284 13.1884
R548 VTAIL.n79 VTAIL.n8 13.1884
R549 VTAIL.n265 VTAIL.n194 13.1884
R550 VTAIL.n173 VTAIL.n102 13.1884
R551 VTAIL.n310 VTAIL.n309 12.8005
R552 VTAIL.n351 VTAIL.n350 12.8005
R553 VTAIL.n356 VTAIL.n282 12.8005
R554 VTAIL.n34 VTAIL.n33 12.8005
R555 VTAIL.n75 VTAIL.n74 12.8005
R556 VTAIL.n80 VTAIL.n6 12.8005
R557 VTAIL.n266 VTAIL.n192 12.8005
R558 VTAIL.n261 VTAIL.n196 12.8005
R559 VTAIL.n221 VTAIL.n220 12.8005
R560 VTAIL.n174 VTAIL.n100 12.8005
R561 VTAIL.n169 VTAIL.n104 12.8005
R562 VTAIL.n129 VTAIL.n128 12.8005
R563 VTAIL.n313 VTAIL.n304 12.0247
R564 VTAIL.n349 VTAIL.n286 12.0247
R565 VTAIL.n360 VTAIL.n359 12.0247
R566 VTAIL.n37 VTAIL.n28 12.0247
R567 VTAIL.n73 VTAIL.n10 12.0247
R568 VTAIL.n84 VTAIL.n83 12.0247
R569 VTAIL.n270 VTAIL.n269 12.0247
R570 VTAIL.n260 VTAIL.n197 12.0247
R571 VTAIL.n224 VTAIL.n215 12.0247
R572 VTAIL.n178 VTAIL.n177 12.0247
R573 VTAIL.n168 VTAIL.n105 12.0247
R574 VTAIL.n132 VTAIL.n123 12.0247
R575 VTAIL.n314 VTAIL.n302 11.249
R576 VTAIL.n346 VTAIL.n345 11.249
R577 VTAIL.n363 VTAIL.n280 11.249
R578 VTAIL.n38 VTAIL.n26 11.249
R579 VTAIL.n70 VTAIL.n69 11.249
R580 VTAIL.n87 VTAIL.n4 11.249
R581 VTAIL.n273 VTAIL.n190 11.249
R582 VTAIL.n257 VTAIL.n256 11.249
R583 VTAIL.n225 VTAIL.n213 11.249
R584 VTAIL.n181 VTAIL.n98 11.249
R585 VTAIL.n165 VTAIL.n164 11.249
R586 VTAIL.n133 VTAIL.n121 11.249
R587 VTAIL.n318 VTAIL.n317 10.4732
R588 VTAIL.n342 VTAIL.n288 10.4732
R589 VTAIL.n364 VTAIL.n278 10.4732
R590 VTAIL.n42 VTAIL.n41 10.4732
R591 VTAIL.n66 VTAIL.n12 10.4732
R592 VTAIL.n88 VTAIL.n2 10.4732
R593 VTAIL.n274 VTAIL.n188 10.4732
R594 VTAIL.n253 VTAIL.n199 10.4732
R595 VTAIL.n229 VTAIL.n228 10.4732
R596 VTAIL.n182 VTAIL.n96 10.4732
R597 VTAIL.n161 VTAIL.n107 10.4732
R598 VTAIL.n137 VTAIL.n136 10.4732
R599 VTAIL.n321 VTAIL.n300 9.69747
R600 VTAIL.n341 VTAIL.n290 9.69747
R601 VTAIL.n45 VTAIL.n24 9.69747
R602 VTAIL.n65 VTAIL.n14 9.69747
R603 VTAIL.n252 VTAIL.n201 9.69747
R604 VTAIL.n232 VTAIL.n211 9.69747
R605 VTAIL.n160 VTAIL.n109 9.69747
R606 VTAIL.n140 VTAIL.n119 9.69747
R607 VTAIL.n366 VTAIL.n365 9.45567
R608 VTAIL.n90 VTAIL.n89 9.45567
R609 VTAIL.n276 VTAIL.n275 9.45567
R610 VTAIL.n184 VTAIL.n183 9.45567
R611 VTAIL.n365 VTAIL.n364 9.3005
R612 VTAIL.n280 VTAIL.n279 9.3005
R613 VTAIL.n359 VTAIL.n358 9.3005
R614 VTAIL.n357 VTAIL.n356 9.3005
R615 VTAIL.n296 VTAIL.n295 9.3005
R616 VTAIL.n325 VTAIL.n324 9.3005
R617 VTAIL.n323 VTAIL.n322 9.3005
R618 VTAIL.n300 VTAIL.n299 9.3005
R619 VTAIL.n317 VTAIL.n316 9.3005
R620 VTAIL.n315 VTAIL.n314 9.3005
R621 VTAIL.n304 VTAIL.n303 9.3005
R622 VTAIL.n309 VTAIL.n308 9.3005
R623 VTAIL.n331 VTAIL.n330 9.3005
R624 VTAIL.n333 VTAIL.n332 9.3005
R625 VTAIL.n292 VTAIL.n291 9.3005
R626 VTAIL.n339 VTAIL.n338 9.3005
R627 VTAIL.n341 VTAIL.n340 9.3005
R628 VTAIL.n288 VTAIL.n287 9.3005
R629 VTAIL.n347 VTAIL.n346 9.3005
R630 VTAIL.n349 VTAIL.n348 9.3005
R631 VTAIL.n350 VTAIL.n283 9.3005
R632 VTAIL.n89 VTAIL.n88 9.3005
R633 VTAIL.n4 VTAIL.n3 9.3005
R634 VTAIL.n83 VTAIL.n82 9.3005
R635 VTAIL.n81 VTAIL.n80 9.3005
R636 VTAIL.n20 VTAIL.n19 9.3005
R637 VTAIL.n49 VTAIL.n48 9.3005
R638 VTAIL.n47 VTAIL.n46 9.3005
R639 VTAIL.n24 VTAIL.n23 9.3005
R640 VTAIL.n41 VTAIL.n40 9.3005
R641 VTAIL.n39 VTAIL.n38 9.3005
R642 VTAIL.n28 VTAIL.n27 9.3005
R643 VTAIL.n33 VTAIL.n32 9.3005
R644 VTAIL.n55 VTAIL.n54 9.3005
R645 VTAIL.n57 VTAIL.n56 9.3005
R646 VTAIL.n16 VTAIL.n15 9.3005
R647 VTAIL.n63 VTAIL.n62 9.3005
R648 VTAIL.n65 VTAIL.n64 9.3005
R649 VTAIL.n12 VTAIL.n11 9.3005
R650 VTAIL.n71 VTAIL.n70 9.3005
R651 VTAIL.n73 VTAIL.n72 9.3005
R652 VTAIL.n74 VTAIL.n7 9.3005
R653 VTAIL.n244 VTAIL.n243 9.3005
R654 VTAIL.n203 VTAIL.n202 9.3005
R655 VTAIL.n250 VTAIL.n249 9.3005
R656 VTAIL.n252 VTAIL.n251 9.3005
R657 VTAIL.n199 VTAIL.n198 9.3005
R658 VTAIL.n258 VTAIL.n257 9.3005
R659 VTAIL.n260 VTAIL.n259 9.3005
R660 VTAIL.n196 VTAIL.n193 9.3005
R661 VTAIL.n275 VTAIL.n274 9.3005
R662 VTAIL.n190 VTAIL.n189 9.3005
R663 VTAIL.n269 VTAIL.n268 9.3005
R664 VTAIL.n267 VTAIL.n266 9.3005
R665 VTAIL.n242 VTAIL.n241 9.3005
R666 VTAIL.n207 VTAIL.n206 9.3005
R667 VTAIL.n236 VTAIL.n235 9.3005
R668 VTAIL.n234 VTAIL.n233 9.3005
R669 VTAIL.n211 VTAIL.n210 9.3005
R670 VTAIL.n228 VTAIL.n227 9.3005
R671 VTAIL.n226 VTAIL.n225 9.3005
R672 VTAIL.n215 VTAIL.n214 9.3005
R673 VTAIL.n220 VTAIL.n219 9.3005
R674 VTAIL.n152 VTAIL.n151 9.3005
R675 VTAIL.n111 VTAIL.n110 9.3005
R676 VTAIL.n158 VTAIL.n157 9.3005
R677 VTAIL.n160 VTAIL.n159 9.3005
R678 VTAIL.n107 VTAIL.n106 9.3005
R679 VTAIL.n166 VTAIL.n165 9.3005
R680 VTAIL.n168 VTAIL.n167 9.3005
R681 VTAIL.n104 VTAIL.n101 9.3005
R682 VTAIL.n183 VTAIL.n182 9.3005
R683 VTAIL.n98 VTAIL.n97 9.3005
R684 VTAIL.n177 VTAIL.n176 9.3005
R685 VTAIL.n175 VTAIL.n174 9.3005
R686 VTAIL.n150 VTAIL.n149 9.3005
R687 VTAIL.n115 VTAIL.n114 9.3005
R688 VTAIL.n144 VTAIL.n143 9.3005
R689 VTAIL.n142 VTAIL.n141 9.3005
R690 VTAIL.n119 VTAIL.n118 9.3005
R691 VTAIL.n136 VTAIL.n135 9.3005
R692 VTAIL.n134 VTAIL.n133 9.3005
R693 VTAIL.n123 VTAIL.n122 9.3005
R694 VTAIL.n128 VTAIL.n127 9.3005
R695 VTAIL.n322 VTAIL.n298 8.92171
R696 VTAIL.n338 VTAIL.n337 8.92171
R697 VTAIL.n46 VTAIL.n22 8.92171
R698 VTAIL.n62 VTAIL.n61 8.92171
R699 VTAIL.n249 VTAIL.n248 8.92171
R700 VTAIL.n233 VTAIL.n209 8.92171
R701 VTAIL.n157 VTAIL.n156 8.92171
R702 VTAIL.n141 VTAIL.n117 8.92171
R703 VTAIL.n326 VTAIL.n325 8.14595
R704 VTAIL.n334 VTAIL.n292 8.14595
R705 VTAIL.n50 VTAIL.n49 8.14595
R706 VTAIL.n58 VTAIL.n16 8.14595
R707 VTAIL.n245 VTAIL.n203 8.14595
R708 VTAIL.n237 VTAIL.n236 8.14595
R709 VTAIL.n153 VTAIL.n111 8.14595
R710 VTAIL.n145 VTAIL.n144 8.14595
R711 VTAIL.n329 VTAIL.n296 7.3702
R712 VTAIL.n333 VTAIL.n294 7.3702
R713 VTAIL.n53 VTAIL.n20 7.3702
R714 VTAIL.n57 VTAIL.n18 7.3702
R715 VTAIL.n244 VTAIL.n205 7.3702
R716 VTAIL.n240 VTAIL.n207 7.3702
R717 VTAIL.n152 VTAIL.n113 7.3702
R718 VTAIL.n148 VTAIL.n115 7.3702
R719 VTAIL.n330 VTAIL.n329 6.59444
R720 VTAIL.n330 VTAIL.n294 6.59444
R721 VTAIL.n54 VTAIL.n53 6.59444
R722 VTAIL.n54 VTAIL.n18 6.59444
R723 VTAIL.n241 VTAIL.n205 6.59444
R724 VTAIL.n241 VTAIL.n240 6.59444
R725 VTAIL.n149 VTAIL.n113 6.59444
R726 VTAIL.n149 VTAIL.n148 6.59444
R727 VTAIL.n326 VTAIL.n296 5.81868
R728 VTAIL.n334 VTAIL.n333 5.81868
R729 VTAIL.n50 VTAIL.n20 5.81868
R730 VTAIL.n58 VTAIL.n57 5.81868
R731 VTAIL.n245 VTAIL.n244 5.81868
R732 VTAIL.n237 VTAIL.n207 5.81868
R733 VTAIL.n153 VTAIL.n152 5.81868
R734 VTAIL.n145 VTAIL.n115 5.81868
R735 VTAIL.n325 VTAIL.n298 5.04292
R736 VTAIL.n337 VTAIL.n292 5.04292
R737 VTAIL.n49 VTAIL.n22 5.04292
R738 VTAIL.n61 VTAIL.n16 5.04292
R739 VTAIL.n248 VTAIL.n203 5.04292
R740 VTAIL.n236 VTAIL.n209 5.04292
R741 VTAIL.n156 VTAIL.n111 5.04292
R742 VTAIL.n144 VTAIL.n117 5.04292
R743 VTAIL.n322 VTAIL.n321 4.26717
R744 VTAIL.n338 VTAIL.n290 4.26717
R745 VTAIL.n46 VTAIL.n45 4.26717
R746 VTAIL.n62 VTAIL.n14 4.26717
R747 VTAIL.n249 VTAIL.n201 4.26717
R748 VTAIL.n233 VTAIL.n232 4.26717
R749 VTAIL.n157 VTAIL.n109 4.26717
R750 VTAIL.n141 VTAIL.n140 4.26717
R751 VTAIL.n308 VTAIL.n307 3.70982
R752 VTAIL.n32 VTAIL.n31 3.70982
R753 VTAIL.n219 VTAIL.n218 3.70982
R754 VTAIL.n127 VTAIL.n126 3.70982
R755 VTAIL.n318 VTAIL.n300 3.49141
R756 VTAIL.n342 VTAIL.n341 3.49141
R757 VTAIL.n366 VTAIL.n278 3.49141
R758 VTAIL.n42 VTAIL.n24 3.49141
R759 VTAIL.n66 VTAIL.n65 3.49141
R760 VTAIL.n90 VTAIL.n2 3.49141
R761 VTAIL.n276 VTAIL.n188 3.49141
R762 VTAIL.n253 VTAIL.n252 3.49141
R763 VTAIL.n229 VTAIL.n211 3.49141
R764 VTAIL.n184 VTAIL.n96 3.49141
R765 VTAIL.n161 VTAIL.n160 3.49141
R766 VTAIL.n137 VTAIL.n119 3.49141
R767 VTAIL.n185 VTAIL.n95 2.73326
R768 VTAIL.n277 VTAIL.n187 2.73326
R769 VTAIL.n93 VTAIL.n91 2.73326
R770 VTAIL.n317 VTAIL.n302 2.71565
R771 VTAIL.n345 VTAIL.n288 2.71565
R772 VTAIL.n364 VTAIL.n363 2.71565
R773 VTAIL.n41 VTAIL.n26 2.71565
R774 VTAIL.n69 VTAIL.n12 2.71565
R775 VTAIL.n88 VTAIL.n87 2.71565
R776 VTAIL.n274 VTAIL.n273 2.71565
R777 VTAIL.n256 VTAIL.n199 2.71565
R778 VTAIL.n228 VTAIL.n213 2.71565
R779 VTAIL.n182 VTAIL.n181 2.71565
R780 VTAIL.n164 VTAIL.n107 2.71565
R781 VTAIL.n136 VTAIL.n121 2.71565
R782 VTAIL.n0 VTAIL.t0 2.00081
R783 VTAIL.n0 VTAIL.t5 2.00081
R784 VTAIL.n92 VTAIL.t8 2.00081
R785 VTAIL.n92 VTAIL.t10 2.00081
R786 VTAIL.n186 VTAIL.t6 2.00081
R787 VTAIL.n186 VTAIL.t11 2.00081
R788 VTAIL.n94 VTAIL.t4 2.00081
R789 VTAIL.n94 VTAIL.t1 2.00081
R790 VTAIL VTAIL.n367 1.99188
R791 VTAIL.n314 VTAIL.n313 1.93989
R792 VTAIL.n346 VTAIL.n286 1.93989
R793 VTAIL.n360 VTAIL.n280 1.93989
R794 VTAIL.n38 VTAIL.n37 1.93989
R795 VTAIL.n70 VTAIL.n10 1.93989
R796 VTAIL.n84 VTAIL.n4 1.93989
R797 VTAIL.n270 VTAIL.n190 1.93989
R798 VTAIL.n257 VTAIL.n197 1.93989
R799 VTAIL.n225 VTAIL.n224 1.93989
R800 VTAIL.n178 VTAIL.n98 1.93989
R801 VTAIL.n165 VTAIL.n105 1.93989
R802 VTAIL.n133 VTAIL.n132 1.93989
R803 VTAIL.n187 VTAIL.n185 1.83671
R804 VTAIL.n91 VTAIL.n1 1.83671
R805 VTAIL.n310 VTAIL.n304 1.16414
R806 VTAIL.n351 VTAIL.n349 1.16414
R807 VTAIL.n359 VTAIL.n282 1.16414
R808 VTAIL.n34 VTAIL.n28 1.16414
R809 VTAIL.n75 VTAIL.n73 1.16414
R810 VTAIL.n83 VTAIL.n6 1.16414
R811 VTAIL.n269 VTAIL.n192 1.16414
R812 VTAIL.n261 VTAIL.n260 1.16414
R813 VTAIL.n221 VTAIL.n215 1.16414
R814 VTAIL.n177 VTAIL.n100 1.16414
R815 VTAIL.n169 VTAIL.n168 1.16414
R816 VTAIL.n129 VTAIL.n123 1.16414
R817 VTAIL VTAIL.n1 0.741879
R818 VTAIL.n309 VTAIL.n306 0.388379
R819 VTAIL.n350 VTAIL.n284 0.388379
R820 VTAIL.n356 VTAIL.n355 0.388379
R821 VTAIL.n33 VTAIL.n30 0.388379
R822 VTAIL.n74 VTAIL.n8 0.388379
R823 VTAIL.n80 VTAIL.n79 0.388379
R824 VTAIL.n266 VTAIL.n265 0.388379
R825 VTAIL.n196 VTAIL.n194 0.388379
R826 VTAIL.n220 VTAIL.n217 0.388379
R827 VTAIL.n174 VTAIL.n173 0.388379
R828 VTAIL.n104 VTAIL.n102 0.388379
R829 VTAIL.n128 VTAIL.n125 0.388379
R830 VTAIL.n308 VTAIL.n303 0.155672
R831 VTAIL.n315 VTAIL.n303 0.155672
R832 VTAIL.n316 VTAIL.n315 0.155672
R833 VTAIL.n316 VTAIL.n299 0.155672
R834 VTAIL.n323 VTAIL.n299 0.155672
R835 VTAIL.n324 VTAIL.n323 0.155672
R836 VTAIL.n324 VTAIL.n295 0.155672
R837 VTAIL.n331 VTAIL.n295 0.155672
R838 VTAIL.n332 VTAIL.n331 0.155672
R839 VTAIL.n332 VTAIL.n291 0.155672
R840 VTAIL.n339 VTAIL.n291 0.155672
R841 VTAIL.n340 VTAIL.n339 0.155672
R842 VTAIL.n340 VTAIL.n287 0.155672
R843 VTAIL.n347 VTAIL.n287 0.155672
R844 VTAIL.n348 VTAIL.n347 0.155672
R845 VTAIL.n348 VTAIL.n283 0.155672
R846 VTAIL.n357 VTAIL.n283 0.155672
R847 VTAIL.n358 VTAIL.n357 0.155672
R848 VTAIL.n358 VTAIL.n279 0.155672
R849 VTAIL.n365 VTAIL.n279 0.155672
R850 VTAIL.n32 VTAIL.n27 0.155672
R851 VTAIL.n39 VTAIL.n27 0.155672
R852 VTAIL.n40 VTAIL.n39 0.155672
R853 VTAIL.n40 VTAIL.n23 0.155672
R854 VTAIL.n47 VTAIL.n23 0.155672
R855 VTAIL.n48 VTAIL.n47 0.155672
R856 VTAIL.n48 VTAIL.n19 0.155672
R857 VTAIL.n55 VTAIL.n19 0.155672
R858 VTAIL.n56 VTAIL.n55 0.155672
R859 VTAIL.n56 VTAIL.n15 0.155672
R860 VTAIL.n63 VTAIL.n15 0.155672
R861 VTAIL.n64 VTAIL.n63 0.155672
R862 VTAIL.n64 VTAIL.n11 0.155672
R863 VTAIL.n71 VTAIL.n11 0.155672
R864 VTAIL.n72 VTAIL.n71 0.155672
R865 VTAIL.n72 VTAIL.n7 0.155672
R866 VTAIL.n81 VTAIL.n7 0.155672
R867 VTAIL.n82 VTAIL.n81 0.155672
R868 VTAIL.n82 VTAIL.n3 0.155672
R869 VTAIL.n89 VTAIL.n3 0.155672
R870 VTAIL.n275 VTAIL.n189 0.155672
R871 VTAIL.n268 VTAIL.n189 0.155672
R872 VTAIL.n268 VTAIL.n267 0.155672
R873 VTAIL.n267 VTAIL.n193 0.155672
R874 VTAIL.n259 VTAIL.n193 0.155672