* NGSPICE file created from opamp_sample_0003.ext - technology: sky130A

.subckt opamp_sample_0003 GND VOUT VDD VN VP CS_BIAS DIFFPAIR_BIAS
X0 GND.t194 CS_BIAS.t2 CS_BIAS.t3 GND.t162 sky130_fd_pr__nfet_01v8 ad=1.155 pd=7.33 as=1.155 ps=7.33 w=7 l=2
X1 VDD.t190 a_n8209_7799.t20 VOUT.t40 VDD.t97 sky130_fd_pr__pfet_01v8 ad=1.32 pd=8.33 as=1.32 ps=8.33 w=8 l=1
X2 VDD.t189 a_n8209_7799.t21 VOUT.t39 VDD.t108 sky130_fd_pr__pfet_01v8 ad=1.32 pd=8.33 as=1.32 ps=8.33 w=8 l=1
X3 VOUT.t112 a_n2686_8222.t8 sky130_fd_pr__cap_mim_m3_1 l=12 w=12
X4 VDD.t77 VDD.t75 VDD.t76 VDD.t50 sky130_fd_pr__pfet_01v8 ad=2.34 pd=12.78 as=0 ps=0 w=6 l=1
X5 a_n2511_10356.t19 a_n2686_12578.t17 a_n2686_12578.t18 VDD.t90 sky130_fd_pr__pfet_01v8 ad=0.99 pd=6.33 as=2.34 ps=12.78 w=6 l=1
X6 GND.t91 GND.t89 GND.t90 GND.t39 sky130_fd_pr__nfet_01v8 ad=2.73 pd=14.78 as=0 ps=0 w=7 l=2
X7 a_n2686_12578.t6 a_n2686_12578.t5 a_n2511_10356.t18 VDD.t83 sky130_fd_pr__pfet_01v8 ad=2.34 pd=12.78 as=0.99 ps=6.33 w=6 l=1
X8 VDD.t94 a_n2686_12578.t32 a_n2686_8222.t7 VDD.t93 sky130_fd_pr__pfet_01v8 ad=0.99 pd=6.33 as=0.99 ps=6.33 w=6 l=1
X9 GND.t88 GND.t86 GND.t87 GND.t25 sky130_fd_pr__nfet_01v8 ad=2.73 pd=14.78 as=0 ps=0 w=7 l=2
X10 GND.t193 CS_BIAS.t0 CS_BIAS.t1 GND.t132 sky130_fd_pr__nfet_01v8 ad=1.155 pd=7.33 as=1.155 ps=7.33 w=7 l=2
X11 GND.t192 CS_BIAS.t40 VOUT.t111 GND.t134 sky130_fd_pr__nfet_01v8 ad=2.73 pd=14.78 as=1.155 ps=7.33 w=7 l=2
X12 a_n8209_7799.t1 VN.t5 a_n1455_n3628.t7 GND.t95 sky130_fd_pr__nfet_01v8 ad=0.99 pd=6.33 as=2.34 ps=12.78 w=6 l=1
X13 VDD.t188 a_n8209_7799.t22 VOUT.t69 VDD.t105 sky130_fd_pr__pfet_01v8 ad=1.32 pd=8.33 as=1.32 ps=8.33 w=8 l=1
X14 VOUT.t68 a_n8209_7799.t23 VDD.t187 VDD.t172 sky130_fd_pr__pfet_01v8 ad=1.32 pd=8.33 as=1.32 ps=8.33 w=8 l=1
X15 a_n2686_12578.t10 a_n2686_12578.t9 a_n2511_10356.t17 VDD.t197 sky130_fd_pr__pfet_01v8 ad=2.34 pd=12.78 as=0.99 ps=6.33 w=6 l=1
X16 CS_BIAS.t19 CS_BIAS.t18 GND.t191 GND.t136 sky130_fd_pr__nfet_01v8 ad=1.155 pd=7.33 as=1.155 ps=7.33 w=7 l=2
X17 VOUT.t67 a_n8209_7799.t24 VDD.t186 VDD.t103 sky130_fd_pr__pfet_01v8 ad=1.32 pd=8.33 as=1.32 ps=8.33 w=8 l=1
X18 VOUT.t113 a_n2686_8222.t8 sky130_fd_pr__cap_mim_m3_1 l=12 w=12
X19 a_n8209_7799.t2 a_n2686_12578.t33 a_n2686_8222.t2 VDD.t79 sky130_fd_pr__pfet_01v8 ad=0.99 pd=6.33 as=0.99 ps=6.33 w=6 l=1
X20 VOUT.t38 a_n8209_7799.t25 VDD.t185 VDD.t152 sky130_fd_pr__pfet_01v8 ad=1.32 pd=8.33 as=3.12 ps=16.78 w=8 l=1
X21 VOUT.t37 a_n8209_7799.t26 VDD.t184 VDD.t157 sky130_fd_pr__pfet_01v8 ad=1.32 pd=8.33 as=1.32 ps=8.33 w=8 l=1
X22 GND.t190 CS_BIAS.t16 CS_BIAS.t17 GND.t156 sky130_fd_pr__nfet_01v8 ad=1.155 pd=7.33 as=1.155 ps=7.33 w=7 l=2
X23 a_n2686_8222.t15 a_n2686_12578.t34 a_n8209_7799.t12 VDD.t197 sky130_fd_pr__pfet_01v8 ad=2.34 pd=12.78 as=0.99 ps=6.33 w=6 l=1
X24 VDD.t183 a_n8209_7799.t27 VOUT.t36 VDD.t99 sky130_fd_pr__pfet_01v8 ad=1.32 pd=8.33 as=1.32 ps=8.33 w=8 l=1
X25 VDD.t182 a_n8209_7799.t28 VOUT.t26 VDD.t139 sky130_fd_pr__pfet_01v8 ad=1.32 pd=8.33 as=1.32 ps=8.33 w=8 l=1
X26 VOUT.t110 CS_BIAS.t41 GND.t189 GND.t143 sky130_fd_pr__nfet_01v8 ad=1.155 pd=7.33 as=1.155 ps=7.33 w=7 l=2
X27 a_n2686_12578.t29 VP.t5 a_n1455_n3628.t17 GND.t100 sky130_fd_pr__nfet_01v8 ad=0.99 pd=6.33 as=2.34 ps=12.78 w=6 l=1
X28 VOUT.t25 a_n8209_7799.t29 VDD.t181 VDD.t95 sky130_fd_pr__pfet_01v8 ad=1.32 pd=8.33 as=1.32 ps=8.33 w=8 l=1
X29 a_n1455_n3628.t14 DIFFPAIR_BIAS.t8 GND.t110 GND.t109 sky130_fd_pr__nfet_01v8 ad=2.34 pd=12.78 as=2.34 ps=12.78 w=6 l=2
X30 a_n1455_n3628.t10 VP.t6 a_n2686_12578.t26 GND.t98 sky130_fd_pr__nfet_01v8 ad=0.99 pd=6.33 as=0.99 ps=6.33 w=6 l=1
X31 VOUT.t24 a_n8209_7799.t30 VDD.t180 VDD.t172 sky130_fd_pr__pfet_01v8 ad=1.32 pd=8.33 as=1.32 ps=8.33 w=8 l=1
X32 GND.t188 CS_BIAS.t42 VOUT.t109 GND.t151 sky130_fd_pr__nfet_01v8 ad=1.155 pd=7.33 as=1.155 ps=7.33 w=7 l=2
X33 GND.t187 CS_BIAS.t43 VOUT.t108 GND.t162 sky130_fd_pr__nfet_01v8 ad=1.155 pd=7.33 as=1.155 ps=7.33 w=7 l=2
X34 VDD.t199 a_n2686_12578.t35 a_n2686_8222.t9 VDD.t198 sky130_fd_pr__pfet_01v8 ad=0.99 pd=6.33 as=0.99 ps=6.33 w=6 l=1
X35 DIFFPAIR_BIAS.t7 DIFFPAIR_BIAS.t6 GND.t112 GND.t111 sky130_fd_pr__nfet_01v8 ad=2.34 pd=12.78 as=2.34 ps=12.78 w=6 l=2
X36 VDD.t74 VDD.t72 VDD.t73 VDD.t30 sky130_fd_pr__pfet_01v8 ad=2.34 pd=12.78 as=0 ps=0 w=6 l=1
X37 VDD.t179 a_n8209_7799.t31 VOUT.t9 VDD.t97 sky130_fd_pr__pfet_01v8 ad=1.32 pd=8.33 as=1.32 ps=8.33 w=8 l=1
X38 a_n2511_10356.t16 a_n2686_12578.t21 a_n2686_12578.t22 VDD.t92 sky130_fd_pr__pfet_01v8 ad=0.99 pd=6.33 as=0.99 ps=6.33 w=6 l=1
X39 VN.t4 GND.t83 GND.t85 GND.t84 sky130_fd_pr__nfet_01v8 ad=0.165 pd=1.33 as=0.165 ps=1.33 w=1 l=0.5
X40 GND.t82 GND.t79 GND.t81 GND.t80 sky130_fd_pr__nfet_01v8 ad=2.34 pd=12.78 as=0 ps=0 w=6 l=2
X41 a_n2686_8222.t5 a_n2686_12578.t36 VDD.t89 VDD.t88 sky130_fd_pr__pfet_01v8 ad=0.99 pd=6.33 as=0.99 ps=6.33 w=6 l=1
X42 GND.t78 GND.t76 GND.t77 GND.t39 sky130_fd_pr__nfet_01v8 ad=2.73 pd=14.78 as=0 ps=0 w=7 l=2
X43 GND.t186 CS_BIAS.t44 VOUT.t107 GND.t148 sky130_fd_pr__nfet_01v8 ad=1.155 pd=7.33 as=1.155 ps=7.33 w=7 l=2
X44 GND.t75 GND.t73 VP.t4 GND.t74 sky130_fd_pr__nfet_01v8 ad=0.39 pd=2.78 as=0.165 ps=1.33 w=1 l=0.5
X45 GND.t72 GND.t69 GND.t71 GND.t70 sky130_fd_pr__nfet_01v8 ad=2.34 pd=12.78 as=0 ps=0 w=6 l=2
X46 VOUT.t8 a_n8209_7799.t32 VDD.t178 VDD.t162 sky130_fd_pr__pfet_01v8 ad=1.32 pd=8.33 as=1.32 ps=8.33 w=8 l=1
X47 a_n2511_10356.t7 a_n2686_12578.t37 VDD.t81 VDD.t80 sky130_fd_pr__pfet_01v8 ad=0.99 pd=6.33 as=0.99 ps=6.33 w=6 l=1
X48 VDD.t177 a_n8209_7799.t33 VOUT.t7 VDD.t147 sky130_fd_pr__pfet_01v8 ad=3.12 pd=16.78 as=1.32 ps=8.33 w=8 l=1
X49 VOUT.t106 CS_BIAS.t45 GND.t184 GND.t115 sky130_fd_pr__nfet_01v8 ad=1.155 pd=7.33 as=1.155 ps=7.33 w=7 l=2
X50 VOUT.t105 CS_BIAS.t46 GND.t183 GND.t159 sky130_fd_pr__nfet_01v8 ad=1.155 pd=7.33 as=1.155 ps=7.33 w=7 l=2
X51 VDD.t176 a_n8209_7799.t34 VOUT.t59 VDD.t101 sky130_fd_pr__pfet_01v8 ad=3.12 pd=16.78 as=1.32 ps=8.33 w=8 l=1
X52 GND.t185 CS_BIAS.t14 CS_BIAS.t15 GND.t148 sky130_fd_pr__nfet_01v8 ad=1.155 pd=7.33 as=1.155 ps=7.33 w=7 l=2
X53 a_n2511_10356.t6 a_n2686_12578.t38 VDD.t213 VDD.t212 sky130_fd_pr__pfet_01v8 ad=2.34 pd=12.78 as=0.99 ps=6.33 w=6 l=1
X54 DIFFPAIR_BIAS.t5 DIFFPAIR_BIAS.t4 GND.t114 GND.t113 sky130_fd_pr__nfet_01v8 ad=2.34 pd=12.78 as=2.34 ps=12.78 w=6 l=2
X55 CS_BIAS.t39 CS_BIAS.t38 GND.t182 GND.t123 sky130_fd_pr__nfet_01v8 ad=1.155 pd=7.33 as=1.155 ps=7.33 w=7 l=2
X56 a_n8209_7799.t17 a_n2686_12578.t39 a_n2686_8222.t18 VDD.t92 sky130_fd_pr__pfet_01v8 ad=0.99 pd=6.33 as=0.99 ps=6.33 w=6 l=1
X57 VOUT.t58 a_n8209_7799.t35 VDD.t175 VDD.t119 sky130_fd_pr__pfet_01v8 ad=1.32 pd=8.33 as=1.32 ps=8.33 w=8 l=1
X58 a_n1455_n3628.t15 VP.t7 a_n2686_12578.t27 GND.t99 sky130_fd_pr__nfet_01v8 ad=2.34 pd=12.78 as=0.99 ps=6.33 w=6 l=1
X59 VOUT.t57 a_n8209_7799.t36 VDD.t174 VDD.t152 sky130_fd_pr__pfet_01v8 ad=1.32 pd=8.33 as=3.12 ps=16.78 w=8 l=1
X60 VDD.t71 VDD.t69 VDD.t70 VDD.t3 sky130_fd_pr__pfet_01v8 ad=3.12 pd=16.78 as=0 ps=0 w=8 l=1
X61 GND.t68 GND.t66 VP.t3 GND.t67 sky130_fd_pr__nfet_01v8 ad=0.165 pd=1.33 as=0.39 ps=2.78 w=1 l=0.5
X62 a_n1455_n3628.t13 DIFFPAIR_BIAS.t9 GND.t108 GND.t107 sky130_fd_pr__nfet_01v8 ad=2.34 pd=12.78 as=2.34 ps=12.78 w=6 l=2
X63 GND.t181 CS_BIAS.t47 VOUT.t104 GND.t156 sky130_fd_pr__nfet_01v8 ad=1.155 pd=7.33 as=1.155 ps=7.33 w=7 l=2
X64 GND.t180 CS_BIAS.t48 VOUT.t103 GND.t154 sky130_fd_pr__nfet_01v8 ad=1.155 pd=7.33 as=1.155 ps=7.33 w=7 l=2
X65 VOUT.t30 a_n8209_7799.t37 VDD.t173 VDD.t172 sky130_fd_pr__pfet_01v8 ad=1.32 pd=8.33 as=1.32 ps=8.33 w=8 l=1
X66 a_n2686_12578.t20 a_n2686_12578.t19 a_n2511_10356.t15 VDD.t210 sky130_fd_pr__pfet_01v8 ad=0.99 pd=6.33 as=0.99 ps=6.33 w=6 l=1
X67 a_n8209_7799.t3 VN.t6 a_n1455_n3628.t6 GND.t96 sky130_fd_pr__nfet_01v8 ad=0.99 pd=6.33 as=0.99 ps=6.33 w=6 l=1
X68 VOUT.t29 a_n8209_7799.t38 VDD.t171 VDD.t113 sky130_fd_pr__pfet_01v8 ad=1.32 pd=8.33 as=1.32 ps=8.33 w=8 l=1
X69 VDD.t170 a_n8209_7799.t39 VOUT.t52 VDD.t155 sky130_fd_pr__pfet_01v8 ad=1.32 pd=8.33 as=1.32 ps=8.33 w=8 l=1
X70 VDD.t68 VDD.t66 VDD.t67 VDD.t60 sky130_fd_pr__pfet_01v8 ad=2.34 pd=12.78 as=0 ps=0 w=6 l=1
X71 VDD.t87 a_n2686_12578.t40 a_n2511_10356.t5 VDD.t86 sky130_fd_pr__pfet_01v8 ad=0.99 pd=6.33 as=0.99 ps=6.33 w=6 l=1
X72 VN.t3 GND.t63 GND.t65 GND.t64 sky130_fd_pr__nfet_01v8 ad=0.165 pd=1.33 as=0.165 ps=1.33 w=1 l=0.5
X73 CS_BIAS.t37 CS_BIAS.t36 GND.t179 GND.t121 sky130_fd_pr__nfet_01v8 ad=1.155 pd=7.33 as=1.155 ps=7.33 w=7 l=2
X74 VOUT.t51 a_n8209_7799.t40 VDD.t169 VDD.t157 sky130_fd_pr__pfet_01v8 ad=1.32 pd=8.33 as=1.32 ps=8.33 w=8 l=1
X75 VOUT.t50 a_n8209_7799.t41 VDD.t168 VDD.t162 sky130_fd_pr__pfet_01v8 ad=1.32 pd=8.33 as=1.32 ps=8.33 w=8 l=1
X76 VDD.t167 a_n8209_7799.t42 VOUT.t33 VDD.t101 sky130_fd_pr__pfet_01v8 ad=3.12 pd=16.78 as=1.32 ps=8.33 w=8 l=1
X77 a_n2511_10356.t4 a_n2686_12578.t41 VDD.t85 VDD.t84 sky130_fd_pr__pfet_01v8 ad=0.99 pd=6.33 as=0.99 ps=6.33 w=6 l=1
X78 VOUT.t32 a_n8209_7799.t43 VDD.t166 VDD.t95 sky130_fd_pr__pfet_01v8 ad=1.32 pd=8.33 as=1.32 ps=8.33 w=8 l=1
X79 VDD.t165 a_n8209_7799.t44 VOUT.t31 VDD.t108 sky130_fd_pr__pfet_01v8 ad=1.32 pd=8.33 as=1.32 ps=8.33 w=8 l=1
X80 GND.t62 GND.t60 GND.t61 GND.t29 sky130_fd_pr__nfet_01v8 ad=2.34 pd=12.78 as=0 ps=0 w=6 l=1
X81 GND.t178 CS_BIAS.t49 VOUT.t102 GND.t119 sky130_fd_pr__nfet_01v8 ad=2.73 pd=14.78 as=1.155 ps=7.33 w=7 l=2
X82 VOUT.t114 a_n2686_8222.t8 sky130_fd_pr__cap_mim_m3_1 l=12 w=12
X83 a_n1455_n3628.t5 VN.t7 a_n8209_7799.t15 GND.t97 sky130_fd_pr__nfet_01v8 ad=2.34 pd=12.78 as=0.99 ps=6.33 w=6 l=1
X84 VDD.t164 a_n8209_7799.t45 VOUT.t35 VDD.t99 sky130_fd_pr__pfet_01v8 ad=1.32 pd=8.33 as=1.32 ps=8.33 w=8 l=1
X85 GND.t59 GND.t57 GND.t58 GND.t25 sky130_fd_pr__nfet_01v8 ad=2.73 pd=14.78 as=0 ps=0 w=7 l=2
X86 VDD.t65 VDD.t63 VDD.t64 VDD.t7 sky130_fd_pr__pfet_01v8 ad=2.34 pd=12.78 as=0 ps=0 w=6 l=1
X87 VOUT.t34 a_n8209_7799.t46 VDD.t163 VDD.t162 sky130_fd_pr__pfet_01v8 ad=1.32 pd=8.33 as=1.32 ps=8.33 w=8 l=1
X88 VDD.t161 a_n8209_7799.t47 VOUT.t43 VDD.t155 sky130_fd_pr__pfet_01v8 ad=1.32 pd=8.33 as=1.32 ps=8.33 w=8 l=1
X89 VOUT.t101 CS_BIAS.t50 GND.t177 GND.t136 sky130_fd_pr__nfet_01v8 ad=1.155 pd=7.33 as=1.155 ps=7.33 w=7 l=2
X90 VDD.t160 a_n8209_7799.t48 VOUT.t42 VDD.t147 sky130_fd_pr__pfet_01v8 ad=3.12 pd=16.78 as=1.32 ps=8.33 w=8 l=1
X91 a_n2511_10356.t14 a_n2686_12578.t23 a_n2686_12578.t24 VDD.t211 sky130_fd_pr__pfet_01v8 ad=0.99 pd=6.33 as=2.34 ps=12.78 w=6 l=1
X92 VOUT.t41 a_n8209_7799.t49 VDD.t159 VDD.t131 sky130_fd_pr__pfet_01v8 ad=1.32 pd=8.33 as=1.32 ps=8.33 w=8 l=1
X93 VOUT.t54 a_n8209_7799.t50 VDD.t158 VDD.t157 sky130_fd_pr__pfet_01v8 ad=1.32 pd=8.33 as=1.32 ps=8.33 w=8 l=1
X94 VDD.t156 a_n8209_7799.t51 VOUT.t53 VDD.t155 sky130_fd_pr__pfet_01v8 ad=1.32 pd=8.33 as=1.32 ps=8.33 w=8 l=1
X95 VDD.t62 VDD.t59 VDD.t61 VDD.t60 sky130_fd_pr__pfet_01v8 ad=2.34 pd=12.78 as=0 ps=0 w=6 l=1
X96 GND.t176 CS_BIAS.t51 VOUT.t100 GND.t129 sky130_fd_pr__nfet_01v8 ad=1.155 pd=7.33 as=1.155 ps=7.33 w=7 l=2
X97 CS_BIAS.t7 CS_BIAS.t6 GND.t175 GND.t159 sky130_fd_pr__nfet_01v8 ad=1.155 pd=7.33 as=1.155 ps=7.33 w=7 l=2
X98 GND.t53 GND.t51 GND.t52 GND.t12 sky130_fd_pr__nfet_01v8 ad=2.73 pd=14.78 as=0 ps=0 w=7 l=2
X99 VDD.t154 a_n8209_7799.t52 VOUT.t61 VDD.t143 sky130_fd_pr__pfet_01v8 ad=1.32 pd=8.33 as=1.32 ps=8.33 w=8 l=1
X100 VOUT.t60 a_n8209_7799.t53 VDD.t153 VDD.t152 sky130_fd_pr__pfet_01v8 ad=1.32 pd=8.33 as=3.12 ps=16.78 w=8 l=1
X101 VOUT.t99 CS_BIAS.t52 GND.t174 GND.t141 sky130_fd_pr__nfet_01v8 ad=1.155 pd=7.33 as=1.155 ps=7.33 w=7 l=2
X102 VDD.t58 VDD.t56 VDD.t57 VDD.t14 sky130_fd_pr__pfet_01v8 ad=3.12 pd=16.78 as=0 ps=0 w=8 l=1
X103 a_n2511_10356.t13 a_n2686_12578.t1 a_n2686_12578.t2 VDD.t79 sky130_fd_pr__pfet_01v8 ad=0.99 pd=6.33 as=0.99 ps=6.33 w=6 l=1
X104 VOUT.t98 CS_BIAS.t53 GND.t173 GND.t121 sky130_fd_pr__nfet_01v8 ad=1.155 pd=7.33 as=1.155 ps=7.33 w=7 l=2
X105 VDD.t151 a_n8209_7799.t54 VOUT.t2 VDD.t139 sky130_fd_pr__pfet_01v8 ad=1.32 pd=8.33 as=1.32 ps=8.33 w=8 l=1
X106 a_n2686_8222.t17 a_n2686_12578.t42 a_n8209_7799.t13 VDD.t210 sky130_fd_pr__pfet_01v8 ad=0.99 pd=6.33 as=0.99 ps=6.33 w=6 l=1
X107 VDD.t150 a_n8209_7799.t55 VOUT.t1 VDD.t143 sky130_fd_pr__pfet_01v8 ad=1.32 pd=8.33 as=1.32 ps=8.33 w=8 l=1
X108 GND.t56 GND.t54 VN.t2 GND.t55 sky130_fd_pr__nfet_01v8 ad=0.39 pd=2.78 as=0.165 ps=1.33 w=1 l=0.5
X109 VOUT.t97 CS_BIAS.t54 GND.t172 GND.t117 sky130_fd_pr__nfet_01v8 ad=1.155 pd=7.33 as=2.73 ps=14.78 w=7 l=2
X110 a_n8209_7799.t4 VN.t8 a_n1455_n3628.t4 GND.t92 sky130_fd_pr__nfet_01v8 ad=0.99 pd=6.33 as=0.99 ps=6.33 w=6 l=1
X111 VDD.t55 VDD.t53 VDD.t54 VDD.t26 sky130_fd_pr__pfet_01v8 ad=3.12 pd=16.78 as=0 ps=0 w=8 l=1
X112 VP.t2 GND.t48 GND.t50 GND.t49 sky130_fd_pr__nfet_01v8 ad=0.165 pd=1.33 as=0.165 ps=1.33 w=1 l=0.5
X113 GND.t167 CS_BIAS.t55 VOUT.t96 GND.t127 sky130_fd_pr__nfet_01v8 ad=1.155 pd=7.33 as=1.155 ps=7.33 w=7 l=2
X114 VOUT.t0 a_n8209_7799.t56 VDD.t149 VDD.t127 sky130_fd_pr__pfet_01v8 ad=1.32 pd=8.33 as=3.12 ps=16.78 w=8 l=1
X115 a_n2686_12578.t14 a_n2686_12578.t13 a_n2511_10356.t12 VDD.t91 sky130_fd_pr__pfet_01v8 ad=0.99 pd=6.33 as=0.99 ps=6.33 w=6 l=1
X116 VDD.t148 a_n8209_7799.t57 VOUT.t21 VDD.t147 sky130_fd_pr__pfet_01v8 ad=3.12 pd=16.78 as=1.32 ps=8.33 w=8 l=1
X117 VDD.t146 a_n8209_7799.t58 VOUT.t20 VDD.t122 sky130_fd_pr__pfet_01v8 ad=1.32 pd=8.33 as=1.32 ps=8.33 w=8 l=1
X118 GND.t171 CS_BIAS.t4 CS_BIAS.t5 GND.t127 sky130_fd_pr__nfet_01v8 ad=1.155 pd=7.33 as=1.155 ps=7.33 w=7 l=2
X119 VOUT.t95 CS_BIAS.t56 GND.t170 GND.t125 sky130_fd_pr__nfet_01v8 ad=1.155 pd=7.33 as=2.73 ps=14.78 w=7 l=2
X120 GND.t169 CS_BIAS.t57 VOUT.t94 GND.t134 sky130_fd_pr__nfet_01v8 ad=2.73 pd=14.78 as=1.155 ps=7.33 w=7 l=2
X121 VOUT.t45 a_n8209_7799.t59 VDD.t145 VDD.t131 sky130_fd_pr__pfet_01v8 ad=1.32 pd=8.33 as=1.32 ps=8.33 w=8 l=1
X122 DIFFPAIR_BIAS.t3 DIFFPAIR_BIAS.t2 GND.t102 GND.t101 sky130_fd_pr__nfet_01v8 ad=2.34 pd=12.78 as=2.34 ps=12.78 w=6 l=2
X123 VOUT.t93 CS_BIAS.t58 GND.t168 GND.t138 sky130_fd_pr__nfet_01v8 ad=1.155 pd=7.33 as=1.155 ps=7.33 w=7 l=2
X124 VOUT.t92 CS_BIAS.t59 GND.t166 GND.t123 sky130_fd_pr__nfet_01v8 ad=1.155 pd=7.33 as=1.155 ps=7.33 w=7 l=2
X125 VDD.t52 VDD.t49 VDD.t51 VDD.t50 sky130_fd_pr__pfet_01v8 ad=2.34 pd=12.78 as=0 ps=0 w=6 l=1
X126 VDD.t48 VDD.t45 VDD.t47 VDD.t46 sky130_fd_pr__pfet_01v8 ad=2.34 pd=12.78 as=0 ps=0 w=6 l=1
X127 a_n2686_8222.t0 a_n2686_12578.t43 VDD.t1 VDD.t0 sky130_fd_pr__pfet_01v8 ad=2.34 pd=12.78 as=0.99 ps=6.33 w=6 l=1
X128 VDD.t144 a_n8209_7799.t60 VOUT.t44 VDD.t143 sky130_fd_pr__pfet_01v8 ad=1.32 pd=8.33 as=1.32 ps=8.33 w=8 l=1
X129 VDD.t44 VDD.t42 VDD.t43 VDD.t14 sky130_fd_pr__pfet_01v8 ad=3.12 pd=16.78 as=0 ps=0 w=8 l=1
X130 VDD.t142 a_n8209_7799.t61 VOUT.t19 VDD.t115 sky130_fd_pr__pfet_01v8 ad=1.32 pd=8.33 as=1.32 ps=8.33 w=8 l=1
X131 VOUT.t18 a_n8209_7799.t62 VDD.t141 VDD.t124 sky130_fd_pr__pfet_01v8 ad=1.32 pd=8.33 as=1.32 ps=8.33 w=8 l=1
X132 GND.t10 GND.t7 GND.t9 GND.t8 sky130_fd_pr__nfet_01v8 ad=2.34 pd=12.78 as=0 ps=0 w=6 l=1
X133 VDD.t140 a_n8209_7799.t63 VOUT.t17 VDD.t139 sky130_fd_pr__pfet_01v8 ad=1.32 pd=8.33 as=1.32 ps=8.33 w=8 l=1
X134 VOUT.t115 a_n2686_8222.t8 sky130_fd_pr__cap_mim_m3_1 l=12 w=12
X135 GND.t165 CS_BIAS.t60 VOUT.t91 GND.t132 sky130_fd_pr__nfet_01v8 ad=1.155 pd=7.33 as=1.155 ps=7.33 w=7 l=2
X136 VOUT.t56 a_n8209_7799.t64 VDD.t138 VDD.t127 sky130_fd_pr__pfet_01v8 ad=1.32 pd=8.33 as=3.12 ps=16.78 w=8 l=1
X137 CS_BIAS.t23 CS_BIAS.t22 GND.t164 GND.t141 sky130_fd_pr__nfet_01v8 ad=1.155 pd=7.33 as=1.155 ps=7.33 w=7 l=2
X138 GND.t163 CS_BIAS.t61 VOUT.t90 GND.t162 sky130_fd_pr__nfet_01v8 ad=1.155 pd=7.33 as=1.155 ps=7.33 w=7 l=2
X139 a_n2686_8222.t13 a_n2686_12578.t44 VDD.t203 VDD.t202 sky130_fd_pr__pfet_01v8 ad=0.99 pd=6.33 as=0.99 ps=6.33 w=6 l=1
X140 a_n1455_n3628.t19 VP.t8 a_n2686_12578.t31 GND.t195 sky130_fd_pr__nfet_01v8 ad=0.99 pd=6.33 as=0.99 ps=6.33 w=6 l=1
X141 GND.t47 GND.t45 VN.t1 GND.t46 sky130_fd_pr__nfet_01v8 ad=0.165 pd=1.33 as=0.165 ps=1.33 w=1 l=0.5
X142 GND.t44 GND.t42 GND.t43 GND.t1 sky130_fd_pr__nfet_01v8 ad=2.73 pd=14.78 as=0 ps=0 w=7 l=2
X143 a_n1455_n3628.t12 DIFFPAIR_BIAS.t10 GND.t106 GND.t105 sky130_fd_pr__nfet_01v8 ad=2.34 pd=12.78 as=2.34 ps=12.78 w=6 l=2
X144 GND.t161 CS_BIAS.t20 CS_BIAS.t21 GND.t154 sky130_fd_pr__nfet_01v8 ad=1.155 pd=7.33 as=1.155 ps=7.33 w=7 l=2
X145 VOUT.t89 CS_BIAS.t62 GND.t160 GND.t159 sky130_fd_pr__nfet_01v8 ad=1.155 pd=7.33 as=1.155 ps=7.33 w=7 l=2
X146 a_n2686_12578.t16 a_n2686_12578.t15 a_n2511_10356.t11 VDD.t191 sky130_fd_pr__pfet_01v8 ad=0.99 pd=6.33 as=0.99 ps=6.33 w=6 l=1
X147 GND.t41 GND.t38 GND.t40 GND.t39 sky130_fd_pr__nfet_01v8 ad=2.73 pd=14.78 as=0 ps=0 w=7 l=2
X148 a_n2686_12578.t12 a_n2686_12578.t11 a_n2511_10356.t10 VDD.t82 sky130_fd_pr__pfet_01v8 ad=0.99 pd=6.33 as=0.99 ps=6.33 w=6 l=1
X149 VDD.t41 VDD.t39 VDD.t40 VDD.t18 sky130_fd_pr__pfet_01v8 ad=3.12 pd=16.78 as=0 ps=0 w=8 l=1
X150 VOUT.t55 a_n8209_7799.t65 VDD.t137 VDD.t103 sky130_fd_pr__pfet_01v8 ad=1.32 pd=8.33 as=1.32 ps=8.33 w=8 l=1
X151 VDD.t38 VDD.t36 VDD.t37 VDD.t26 sky130_fd_pr__pfet_01v8 ad=3.12 pd=16.78 as=0 ps=0 w=8 l=1
X152 VDD.t136 a_n8209_7799.t66 VOUT.t64 VDD.t117 sky130_fd_pr__pfet_01v8 ad=1.32 pd=8.33 as=1.32 ps=8.33 w=8 l=1
X153 a_n2686_12578.t30 VP.t9 a_n1455_n3628.t18 GND.t95 sky130_fd_pr__nfet_01v8 ad=0.99 pd=6.33 as=2.34 ps=12.78 w=6 l=1
X154 a_n1455_n3628.t3 VN.t9 a_n8209_7799.t8 GND.t99 sky130_fd_pr__nfet_01v8 ad=2.34 pd=12.78 as=0.99 ps=6.33 w=6 l=1
X155 VOUT.t63 a_n8209_7799.t67 VDD.t135 VDD.t124 sky130_fd_pr__pfet_01v8 ad=1.32 pd=8.33 as=1.32 ps=8.33 w=8 l=1
X156 GND.t158 CS_BIAS.t28 CS_BIAS.t29 GND.t151 sky130_fd_pr__nfet_01v8 ad=1.155 pd=7.33 as=1.155 ps=7.33 w=7 l=2
X157 VDD.t134 a_n8209_7799.t68 VOUT.t62 VDD.t122 sky130_fd_pr__pfet_01v8 ad=1.32 pd=8.33 as=1.32 ps=8.33 w=8 l=1
X158 a_n2686_8222.t19 a_n2686_12578.t45 a_n8209_7799.t18 VDD.t191 sky130_fd_pr__pfet_01v8 ad=0.99 pd=6.33 as=0.99 ps=6.33 w=6 l=1
X159 GND.t157 CS_BIAS.t63 VOUT.t88 GND.t156 sky130_fd_pr__nfet_01v8 ad=1.155 pd=7.33 as=1.155 ps=7.33 w=7 l=2
X160 GND.t155 CS_BIAS.t64 VOUT.t87 GND.t154 sky130_fd_pr__nfet_01v8 ad=1.155 pd=7.33 as=1.155 ps=7.33 w=7 l=2
X161 a_n2686_8222.t10 a_n2686_12578.t46 VDD.t201 VDD.t200 sky130_fd_pr__pfet_01v8 ad=2.34 pd=12.78 as=0.99 ps=6.33 w=6 l=1
X162 VOUT.t86 CS_BIAS.t65 GND.t153 GND.t143 sky130_fd_pr__nfet_01v8 ad=1.155 pd=7.33 as=1.155 ps=7.33 w=7 l=2
X163 a_n2686_12578.t28 VP.t10 a_n1455_n3628.t16 GND.t96 sky130_fd_pr__nfet_01v8 ad=0.99 pd=6.33 as=0.99 ps=6.33 w=6 l=1
X164 a_n8209_7799.t9 VN.t10 a_n1455_n3628.t2 GND.t100 sky130_fd_pr__nfet_01v8 ad=0.99 pd=6.33 as=2.34 ps=12.78 w=6 l=1
X165 VOUT.t28 a_n8209_7799.t69 VDD.t133 VDD.t119 sky130_fd_pr__pfet_01v8 ad=1.32 pd=8.33 as=1.32 ps=8.33 w=8 l=1
X166 GND.t37 GND.t35 GND.t36 GND.t1 sky130_fd_pr__nfet_01v8 ad=2.73 pd=14.78 as=0 ps=0 w=7 l=2
X167 a_n1455_n3628.t1 VN.t11 a_n8209_7799.t14 GND.t98 sky130_fd_pr__nfet_01v8 ad=0.99 pd=6.33 as=0.99 ps=6.33 w=6 l=1
X168 GND.t152 CS_BIAS.t66 VOUT.t85 GND.t151 sky130_fd_pr__nfet_01v8 ad=1.155 pd=7.33 as=1.155 ps=7.33 w=7 l=2
X169 VDD.t35 VDD.t33 VDD.t34 VDD.t18 sky130_fd_pr__pfet_01v8 ad=3.12 pd=16.78 as=0 ps=0 w=8 l=1
X170 CS_BIAS.t27 CS_BIAS.t26 GND.t150 GND.t138 sky130_fd_pr__nfet_01v8 ad=1.155 pd=7.33 as=1.155 ps=7.33 w=7 l=2
X171 GND.t34 GND.t32 GND.t33 GND.t12 sky130_fd_pr__nfet_01v8 ad=2.73 pd=14.78 as=0 ps=0 w=7 l=2
X172 a_n2511_10356.t9 a_n2686_12578.t7 a_n2686_12578.t8 VDD.t78 sky130_fd_pr__pfet_01v8 ad=0.99 pd=6.33 as=0.99 ps=6.33 w=6 l=1
X173 a_n8209_7799.t11 a_n2686_12578.t47 a_n2686_8222.t12 VDD.t192 sky130_fd_pr__pfet_01v8 ad=0.99 pd=6.33 as=0.99 ps=6.33 w=6 l=1
X174 VDD.t32 VDD.t29 VDD.t31 VDD.t30 sky130_fd_pr__pfet_01v8 ad=2.34 pd=12.78 as=0 ps=0 w=6 l=1
X175 VOUT.t27 a_n8209_7799.t70 VDD.t132 VDD.t131 sky130_fd_pr__pfet_01v8 ad=1.32 pd=8.33 as=1.32 ps=8.33 w=8 l=1
X176 GND.t149 CS_BIAS.t67 VOUT.t84 GND.t148 sky130_fd_pr__nfet_01v8 ad=1.155 pd=7.33 as=1.155 ps=7.33 w=7 l=2
X177 VDD.t28 VDD.t25 VDD.t27 VDD.t26 sky130_fd_pr__pfet_01v8 ad=3.12 pd=16.78 as=0 ps=0 w=8 l=1
X178 GND.t31 GND.t28 GND.t30 GND.t29 sky130_fd_pr__nfet_01v8 ad=2.34 pd=12.78 as=0 ps=0 w=6 l=1
X179 VDD.t130 a_n8209_7799.t71 VOUT.t12 VDD.t115 sky130_fd_pr__pfet_01v8 ad=1.32 pd=8.33 as=1.32 ps=8.33 w=8 l=1
X180 VDD.t129 a_n8209_7799.t72 VOUT.t11 VDD.t117 sky130_fd_pr__pfet_01v8 ad=1.32 pd=8.33 as=1.32 ps=8.33 w=8 l=1
X181 VOUT.t83 CS_BIAS.t68 GND.t147 GND.t115 sky130_fd_pr__nfet_01v8 ad=1.155 pd=7.33 as=1.155 ps=7.33 w=7 l=2
X182 VOUT.t116 a_n2686_8222.t8 sky130_fd_pr__cap_mim_m3_1 l=12 w=12
X183 a_n1455_n3628.t9 VP.t11 a_n2686_12578.t25 GND.t97 sky130_fd_pr__nfet_01v8 ad=2.34 pd=12.78 as=0.99 ps=6.33 w=6 l=1
X184 VOUT.t10 a_n8209_7799.t73 VDD.t128 VDD.t127 sky130_fd_pr__pfet_01v8 ad=1.32 pd=8.33 as=3.12 ps=16.78 w=8 l=1
X185 CS_BIAS.t13 CS_BIAS.t12 GND.t146 GND.t125 sky130_fd_pr__nfet_01v8 ad=1.155 pd=7.33 as=2.73 ps=14.78 w=7 l=2
X186 VOUT.t4 a_n8209_7799.t74 VDD.t126 VDD.t113 sky130_fd_pr__pfet_01v8 ad=1.32 pd=8.33 as=1.32 ps=8.33 w=8 l=1
X187 VOUT.t3 a_n8209_7799.t75 VDD.t125 VDD.t124 sky130_fd_pr__pfet_01v8 ad=1.32 pd=8.33 as=1.32 ps=8.33 w=8 l=1
X188 a_n1455_n3628.t11 DIFFPAIR_BIAS.t11 GND.t104 GND.t103 sky130_fd_pr__nfet_01v8 ad=2.34 pd=12.78 as=2.34 ps=12.78 w=6 l=2
X189 VDD.t123 a_n8209_7799.t76 VOUT.t14 VDD.t122 sky130_fd_pr__pfet_01v8 ad=1.32 pd=8.33 as=1.32 ps=8.33 w=8 l=1
X190 GND.t145 CS_BIAS.t10 CS_BIAS.t11 GND.t119 sky130_fd_pr__nfet_01v8 ad=2.73 pd=14.78 as=1.155 ps=7.33 w=7 l=2
X191 GND.t27 GND.t24 GND.t26 GND.t25 sky130_fd_pr__nfet_01v8 ad=2.73 pd=14.78 as=0 ps=0 w=7 l=2
X192 a_n8209_7799.t10 a_n2686_12578.t48 a_n2686_8222.t11 VDD.t90 sky130_fd_pr__pfet_01v8 ad=0.99 pd=6.33 as=2.34 ps=12.78 w=6 l=1
X193 VDD.t24 VDD.t21 VDD.t23 VDD.t22 sky130_fd_pr__pfet_01v8 ad=2.34 pd=12.78 as=0 ps=0 w=6 l=1
X194 VOUT.t13 a_n8209_7799.t77 VDD.t121 VDD.t110 sky130_fd_pr__pfet_01v8 ad=1.32 pd=8.33 as=1.32 ps=8.33 w=8 l=1
X195 VOUT.t23 a_n8209_7799.t78 VDD.t120 VDD.t119 sky130_fd_pr__pfet_01v8 ad=1.32 pd=8.33 as=1.32 ps=8.33 w=8 l=1
X196 VDD.t215 a_n2686_12578.t49 a_n2511_10356.t3 VDD.t214 sky130_fd_pr__pfet_01v8 ad=0.99 pd=6.33 as=2.34 ps=12.78 w=6 l=1
X197 VDD.t20 VDD.t17 VDD.t19 VDD.t18 sky130_fd_pr__pfet_01v8 ad=3.12 pd=16.78 as=0 ps=0 w=8 l=1
X198 a_n2686_8222.t3 a_n2686_12578.t50 a_n8209_7799.t5 VDD.t83 sky130_fd_pr__pfet_01v8 ad=2.34 pd=12.78 as=0.99 ps=6.33 w=6 l=1
X199 a_n2511_10356.t8 a_n2686_12578.t3 a_n2686_12578.t4 VDD.t192 sky130_fd_pr__pfet_01v8 ad=0.99 pd=6.33 as=0.99 ps=6.33 w=6 l=1
X200 VDD.t118 a_n8209_7799.t79 VOUT.t22 VDD.t117 sky130_fd_pr__pfet_01v8 ad=1.32 pd=8.33 as=1.32 ps=8.33 w=8 l=1
X201 CS_BIAS.t9 CS_BIAS.t8 GND.t144 GND.t143 sky130_fd_pr__nfet_01v8 ad=1.155 pd=7.33 as=1.155 ps=7.33 w=7 l=2
X202 VDD.t194 a_n2686_12578.t51 a_n2511_10356.t2 VDD.t193 sky130_fd_pr__pfet_01v8 ad=0.99 pd=6.33 as=0.99 ps=6.33 w=6 l=1
X203 VDD.t207 a_n2686_12578.t52 a_n2686_8222.t16 VDD.t206 sky130_fd_pr__pfet_01v8 ad=0.99 pd=6.33 as=2.34 ps=12.78 w=6 l=1
X204 VDD.t116 a_n8209_7799.t80 VOUT.t49 VDD.t115 sky130_fd_pr__pfet_01v8 ad=1.32 pd=8.33 as=1.32 ps=8.33 w=8 l=1
X205 a_n8209_7799.t19 a_n2686_12578.t53 a_n2686_8222.t20 VDD.t211 sky130_fd_pr__pfet_01v8 ad=0.99 pd=6.33 as=2.34 ps=12.78 w=6 l=1
X206 VP.t1 GND.t21 GND.t23 GND.t22 sky130_fd_pr__nfet_01v8 ad=0.165 pd=1.33 as=0.165 ps=1.33 w=1 l=0.5
X207 VOUT.t82 CS_BIAS.t69 GND.t142 GND.t141 sky130_fd_pr__nfet_01v8 ad=1.155 pd=7.33 as=1.155 ps=7.33 w=7 l=2
X208 DIFFPAIR_BIAS.t1 DIFFPAIR_BIAS.t0 GND.t94 GND.t93 sky130_fd_pr__nfet_01v8 ad=2.34 pd=12.78 as=2.34 ps=12.78 w=6 l=2
X209 VOUT.t48 a_n8209_7799.t81 VDD.t114 VDD.t113 sky130_fd_pr__pfet_01v8 ad=1.32 pd=8.33 as=1.32 ps=8.33 w=8 l=1
X210 VDD.t16 VDD.t13 VDD.t15 VDD.t14 sky130_fd_pr__pfet_01v8 ad=3.12 pd=16.78 as=0 ps=0 w=8 l=1
X211 GND.t120 CS_BIAS.t70 VOUT.t81 GND.t119 sky130_fd_pr__nfet_01v8 ad=2.73 pd=14.78 as=1.155 ps=7.33 w=7 l=2
X212 VOUT.t80 CS_BIAS.t71 GND.t118 GND.t117 sky130_fd_pr__nfet_01v8 ad=1.155 pd=7.33 as=2.73 ps=14.78 w=7 l=2
X213 GND.t128 CS_BIAS.t72 VOUT.t79 GND.t127 sky130_fd_pr__nfet_01v8 ad=1.155 pd=7.33 as=1.155 ps=7.33 w=7 l=2
X214 VDD.t12 VDD.t10 VDD.t11 VDD.t3 sky130_fd_pr__pfet_01v8 ad=3.12 pd=16.78 as=0 ps=0 w=8 l=1
X215 VOUT.t71 a_n8209_7799.t82 VDD.t112 VDD.t110 sky130_fd_pr__pfet_01v8 ad=1.32 pd=8.33 as=1.32 ps=8.33 w=8 l=1
X216 a_n2686_8222.t6 a_n2686_12578.t54 a_n8209_7799.t7 VDD.t91 sky130_fd_pr__pfet_01v8 ad=0.99 pd=6.33 as=0.99 ps=6.33 w=6 l=1
X217 VOUT.t78 CS_BIAS.t73 GND.t126 GND.t125 sky130_fd_pr__nfet_01v8 ad=1.155 pd=7.33 as=2.73 ps=14.78 w=7 l=2
X218 GND.t140 CS_BIAS.t34 CS_BIAS.t35 GND.t129 sky130_fd_pr__nfet_01v8 ad=1.155 pd=7.33 as=1.155 ps=7.33 w=7 l=2
X219 VDD.t205 a_n2686_12578.t55 a_n2686_8222.t14 VDD.t204 sky130_fd_pr__pfet_01v8 ad=0.99 pd=6.33 as=2.34 ps=12.78 w=6 l=1
X220 VOUT.t70 a_n8209_7799.t83 VDD.t111 VDD.t110 sky130_fd_pr__pfet_01v8 ad=1.32 pd=8.33 as=1.32 ps=8.33 w=8 l=1
X221 VDD.t109 a_n8209_7799.t84 VOUT.t47 VDD.t108 sky130_fd_pr__pfet_01v8 ad=1.32 pd=8.33 as=1.32 ps=8.33 w=8 l=1
X222 a_n2686_8222.t4 a_n2686_12578.t56 a_n8209_7799.t6 VDD.t82 sky130_fd_pr__pfet_01v8 ad=0.99 pd=6.33 as=0.99 ps=6.33 w=6 l=1
X223 VOUT.t77 CS_BIAS.t74 GND.t124 GND.t123 sky130_fd_pr__nfet_01v8 ad=1.155 pd=7.33 as=1.155 ps=7.33 w=7 l=2
X224 VOUT.t76 CS_BIAS.t75 GND.t139 GND.t138 sky130_fd_pr__nfet_01v8 ad=1.155 pd=7.33 as=1.155 ps=7.33 w=7 l=2
X225 VOUT.t75 CS_BIAS.t76 GND.t137 GND.t136 sky130_fd_pr__nfet_01v8 ad=1.155 pd=7.33 as=1.155 ps=7.33 w=7 l=2
X226 VDD.t196 a_n2686_12578.t57 a_n2511_10356.t1 VDD.t195 sky130_fd_pr__pfet_01v8 ad=0.99 pd=6.33 as=2.34 ps=12.78 w=6 l=1
X227 a_n2511_10356.t0 a_n2686_12578.t58 VDD.t209 VDD.t208 sky130_fd_pr__pfet_01v8 ad=2.34 pd=12.78 as=0.99 ps=6.33 w=6 l=1
X228 VDD.t9 VDD.t6 VDD.t8 VDD.t7 sky130_fd_pr__pfet_01v8 ad=2.34 pd=12.78 as=0 ps=0 w=6 l=1
X229 GND.t130 CS_BIAS.t77 VOUT.t74 GND.t129 sky130_fd_pr__nfet_01v8 ad=1.155 pd=7.33 as=1.155 ps=7.33 w=7 l=2
X230 VDD.t107 a_n8209_7799.t85 VOUT.t46 VDD.t105 sky130_fd_pr__pfet_01v8 ad=1.32 pd=8.33 as=1.32 ps=8.33 w=8 l=1
X231 GND.t20 GND.t18 GND.t19 GND.t8 sky130_fd_pr__nfet_01v8 ad=2.34 pd=12.78 as=0 ps=0 w=6 l=1
X232 VDD.t106 a_n8209_7799.t86 VOUT.t66 VDD.t105 sky130_fd_pr__pfet_01v8 ad=1.32 pd=8.33 as=1.32 ps=8.33 w=8 l=1
X233 GND.t17 GND.t15 VN.t0 GND.t16 sky130_fd_pr__nfet_01v8 ad=0.165 pd=1.33 as=0.39 ps=2.78 w=1 l=0.5
X234 VOUT.t117 a_n2686_8222.t8 sky130_fd_pr__cap_mim_m3_1 l=12 w=12
X235 GND.t135 CS_BIAS.t32 CS_BIAS.t33 GND.t134 sky130_fd_pr__nfet_01v8 ad=2.73 pd=14.78 as=1.155 ps=7.33 w=7 l=2
X236 GND.t14 GND.t11 GND.t13 GND.t12 sky130_fd_pr__nfet_01v8 ad=2.73 pd=14.78 as=0 ps=0 w=7 l=2
X237 VOUT.t65 a_n8209_7799.t87 VDD.t104 VDD.t103 sky130_fd_pr__pfet_01v8 ad=1.32 pd=8.33 as=1.32 ps=8.33 w=8 l=1
X238 GND.t133 CS_BIAS.t78 VOUT.t73 GND.t132 sky130_fd_pr__nfet_01v8 ad=1.155 pd=7.33 as=1.155 ps=7.33 w=7 l=2
X239 a_n8209_7799.t0 a_n2686_12578.t59 a_n2686_8222.t1 VDD.t78 sky130_fd_pr__pfet_01v8 ad=0.99 pd=6.33 as=0.99 ps=6.33 w=6 l=1
X240 VDD.t102 a_n8209_7799.t88 VOUT.t6 VDD.t101 sky130_fd_pr__pfet_01v8 ad=3.12 pd=16.78 as=1.32 ps=8.33 w=8 l=1
X241 CS_BIAS.t31 CS_BIAS.t30 GND.t131 GND.t117 sky130_fd_pr__nfet_01v8 ad=1.155 pd=7.33 as=2.73 ps=14.78 w=7 l=2
X242 a_n1455_n3628.t0 VN.t12 a_n8209_7799.t16 GND.t195 sky130_fd_pr__nfet_01v8 ad=0.99 pd=6.33 as=0.99 ps=6.33 w=6 l=1
X243 VOUT.t72 CS_BIAS.t79 GND.t122 GND.t121 sky130_fd_pr__nfet_01v8 ad=1.155 pd=7.33 as=1.155 ps=7.33 w=7 l=2
X244 VDD.t100 a_n8209_7799.t89 VOUT.t5 VDD.t99 sky130_fd_pr__pfet_01v8 ad=1.32 pd=8.33 as=1.32 ps=8.33 w=8 l=1
X245 VDD.t98 a_n8209_7799.t90 VOUT.t16 VDD.t97 sky130_fd_pr__pfet_01v8 ad=1.32 pd=8.33 as=1.32 ps=8.33 w=8 l=1
X246 a_n2686_12578.t0 VP.t12 a_n1455_n3628.t8 GND.t92 sky130_fd_pr__nfet_01v8 ad=0.99 pd=6.33 as=0.99 ps=6.33 w=6 l=1
X247 VOUT.t15 a_n8209_7799.t91 VDD.t96 VDD.t95 sky130_fd_pr__pfet_01v8 ad=1.32 pd=8.33 as=1.32 ps=8.33 w=8 l=1
X248 VDD.t5 VDD.t2 VDD.t4 VDD.t3 sky130_fd_pr__pfet_01v8 ad=3.12 pd=16.78 as=0 ps=0 w=8 l=1
X249 CS_BIAS.t25 CS_BIAS.t24 GND.t116 GND.t115 sky130_fd_pr__nfet_01v8 ad=1.155 pd=7.33 as=1.155 ps=7.33 w=7 l=2
X250 GND.t6 GND.t4 VP.t0 GND.t5 sky130_fd_pr__nfet_01v8 ad=0.165 pd=1.33 as=0.165 ps=1.33 w=1 l=0.5
X251 GND.t3 GND.t0 GND.t2 GND.t1 sky130_fd_pr__nfet_01v8 ad=2.73 pd=14.78 as=0 ps=0 w=7 l=2
R0 CS_BIAS.n261 CS_BIAS.n179 161.3
R1 CS_BIAS.n260 CS_BIAS.n259 161.3
R2 CS_BIAS.n258 CS_BIAS.n180 161.3
R3 CS_BIAS.n257 CS_BIAS.n256 161.3
R4 CS_BIAS.n254 CS_BIAS.n181 161.3
R5 CS_BIAS.n253 CS_BIAS.n252 161.3
R6 CS_BIAS.n251 CS_BIAS.n182 161.3
R7 CS_BIAS.n250 CS_BIAS.n249 161.3
R8 CS_BIAS.n248 CS_BIAS.n183 161.3
R9 CS_BIAS.n246 CS_BIAS.n245 161.3
R10 CS_BIAS.n244 CS_BIAS.n184 161.3
R11 CS_BIAS.n243 CS_BIAS.n242 161.3
R12 CS_BIAS.n241 CS_BIAS.n185 161.3
R13 CS_BIAS.n240 CS_BIAS.n239 161.3
R14 CS_BIAS.n238 CS_BIAS.n237 161.3
R15 CS_BIAS.n236 CS_BIAS.n187 161.3
R16 CS_BIAS.n235 CS_BIAS.n234 161.3
R17 CS_BIAS.n233 CS_BIAS.n188 161.3
R18 CS_BIAS.n232 CS_BIAS.n231 161.3
R19 CS_BIAS.n230 CS_BIAS.n189 161.3
R20 CS_BIAS.n229 CS_BIAS.n228 161.3
R21 CS_BIAS.n227 CS_BIAS.n191 161.3
R22 CS_BIAS.n226 CS_BIAS.n225 161.3
R23 CS_BIAS.n223 CS_BIAS.n192 161.3
R24 CS_BIAS.n222 CS_BIAS.n221 161.3
R25 CS_BIAS.n220 CS_BIAS.n193 161.3
R26 CS_BIAS.n219 CS_BIAS.n218 161.3
R27 CS_BIAS.n216 CS_BIAS.n194 161.3
R28 CS_BIAS.n215 CS_BIAS.n214 161.3
R29 CS_BIAS.n213 CS_BIAS.n195 161.3
R30 CS_BIAS.n212 CS_BIAS.n211 161.3
R31 CS_BIAS.n210 CS_BIAS.n196 161.3
R32 CS_BIAS.n208 CS_BIAS.n207 161.3
R33 CS_BIAS.n206 CS_BIAS.n197 161.3
R34 CS_BIAS.n205 CS_BIAS.n204 161.3
R35 CS_BIAS.n203 CS_BIAS.n198 161.3
R36 CS_BIAS.n202 CS_BIAS.n201 161.3
R37 CS_BIAS.n36 CS_BIAS.n35 161.3
R38 CS_BIAS.n37 CS_BIAS.n32 161.3
R39 CS_BIAS.n39 CS_BIAS.n38 161.3
R40 CS_BIAS.n40 CS_BIAS.n31 161.3
R41 CS_BIAS.n42 CS_BIAS.n41 161.3
R42 CS_BIAS.n44 CS_BIAS.n30 161.3
R43 CS_BIAS.n46 CS_BIAS.n45 161.3
R44 CS_BIAS.n47 CS_BIAS.n29 161.3
R45 CS_BIAS.n49 CS_BIAS.n48 161.3
R46 CS_BIAS.n50 CS_BIAS.n28 161.3
R47 CS_BIAS.n53 CS_BIAS.n52 161.3
R48 CS_BIAS.n54 CS_BIAS.n27 161.3
R49 CS_BIAS.n56 CS_BIAS.n55 161.3
R50 CS_BIAS.n57 CS_BIAS.n26 161.3
R51 CS_BIAS.n60 CS_BIAS.n59 161.3
R52 CS_BIAS.n61 CS_BIAS.n25 161.3
R53 CS_BIAS.n63 CS_BIAS.n62 161.3
R54 CS_BIAS.n64 CS_BIAS.n23 161.3
R55 CS_BIAS.n66 CS_BIAS.n65 161.3