* NGSPICE file created from diff_pair_sample_1714.ext - technology: sky130A

.subckt diff_pair_sample_1714 VTAIL VN VP B VDD2 VDD1
X0 B.t11 B.t9 B.t10 w_n1794_n3680# sky130_fd_pr__pfet_01v8 ad=5.2884 pd=27.9 as=0 ps=0 w=13.56 l=1.73
X1 VDD2.t1 VN.t0 VTAIL.t3 w_n1794_n3680# sky130_fd_pr__pfet_01v8 ad=5.2884 pd=27.9 as=5.2884 ps=27.9 w=13.56 l=1.73
X2 B.t8 B.t6 B.t7 w_n1794_n3680# sky130_fd_pr__pfet_01v8 ad=5.2884 pd=27.9 as=0 ps=0 w=13.56 l=1.73
X3 VDD2.t0 VN.t1 VTAIL.t2 w_n1794_n3680# sky130_fd_pr__pfet_01v8 ad=5.2884 pd=27.9 as=5.2884 ps=27.9 w=13.56 l=1.73
X4 VDD1.t1 VP.t0 VTAIL.t0 w_n1794_n3680# sky130_fd_pr__pfet_01v8 ad=5.2884 pd=27.9 as=5.2884 ps=27.9 w=13.56 l=1.73
X5 B.t5 B.t3 B.t4 w_n1794_n3680# sky130_fd_pr__pfet_01v8 ad=5.2884 pd=27.9 as=0 ps=0 w=13.56 l=1.73
X6 B.t2 B.t0 B.t1 w_n1794_n3680# sky130_fd_pr__pfet_01v8 ad=5.2884 pd=27.9 as=0 ps=0 w=13.56 l=1.73
X7 VDD1.t0 VP.t1 VTAIL.t1 w_n1794_n3680# sky130_fd_pr__pfet_01v8 ad=5.2884 pd=27.9 as=5.2884 ps=27.9 w=13.56 l=1.73
R0 B.n398 B.n67 585
R1 B.n400 B.n399 585
R2 B.n401 B.n66 585
R3 B.n403 B.n402 585
R4 B.n404 B.n65 585
R5 B.n406 B.n405 585
R6 B.n407 B.n64 585
R7 B.n409 B.n408 585
R8 B.n410 B.n63 585
R9 B.n412 B.n411 585
R10 B.n413 B.n62 585
R11 B.n415 B.n414 585
R12 B.n416 B.n61 585
R13 B.n418 B.n417 585
R14 B.n419 B.n60 585
R15 B.n421 B.n420 585
R16 B.n422 B.n59 585
R17 B.n424 B.n423 585
R18 B.n425 B.n58 585
R19 B.n427 B.n426 585
R20 B.n428 B.n57 585
R21 B.n430 B.n429 585
R22 B.n431 B.n56 585
R23 B.n433 B.n432 585
R24 B.n434 B.n55 585
R25 B.n436 B.n435 585
R26 B.n437 B.n54 585
R27 B.n439 B.n438 585
R28 B.n440 B.n53 585
R29 B.n442 B.n441 585
R30 B.n443 B.n52 585
R31 B.n445 B.n444 585
R32 B.n446 B.n51 585
R33 B.n448 B.n447 585
R34 B.n449 B.n50 585
R35 B.n451 B.n450 585
R36 B.n452 B.n49 585
R37 B.n454 B.n453 585
R38 B.n455 B.n48 585
R39 B.n457 B.n456 585
R40 B.n458 B.n47 585
R41 B.n460 B.n459 585
R42 B.n461 B.n46 585
R43 B.n463 B.n462 585
R44 B.n464 B.n45 585
R45 B.n466 B.n465 585
R46 B.n468 B.n467 585
R47 B.n469 B.n41 585
R48 B.n471 B.n470 585
R49 B.n472 B.n40 585
R50 B.n474 B.n473 585
R51 B.n475 B.n39 585
R52 B.n477 B.n476 585
R53 B.n478 B.n38 585
R54 B.n480 B.n479 585
R55 B.n481 B.n35 585
R56 B.n484 B.n483 585
R57 B.n485 B.n34 585
R58 B.n487 B.n486 585
R59 B.n488 B.n33 585
R60 B.n490 B.n489 585
R61 B.n491 B.n32 585
R62 B.n493 B.n492 585
R63 B.n494 B.n31 585
R64 B.n496 B.n495 585
R65 B.n497 B.n30 585
R66 B.n499 B.n498 585
R67 B.n500 B.n29 585
R68 B.n502 B.n501 585
R69 B.n503 B.n28 585
R70 B.n505 B.n504 585
R71 B.n506 B.n27 585
R72 B.n508 B.n507 585
R73 B.n509 B.n26 585
R74 B.n511 B.n510 585
R75 B.n512 B.n25 585
R76 B.n514 B.n513 585
R77 B.n515 B.n24 585
R78 B.n517 B.n516 585
R79 B.n518 B.n23 585
R80 B.n520 B.n519 585
R81 B.n521 B.n22 585
R82 B.n523 B.n522 585
R83 B.n524 B.n21 585
R84 B.n526 B.n525 585
R85 B.n527 B.n20 585
R86 B.n529 B.n528 585
R87 B.n530 B.n19 585
R88 B.n532 B.n531 585
R89 B.n533 B.n18 585
R90 B.n535 B.n534 585
R91 B.n536 B.n17 585
R92 B.n538 B.n537 585
R93 B.n539 B.n16 585
R94 B.n541 B.n540 585
R95 B.n542 B.n15 585
R96 B.n544 B.n543 585
R97 B.n545 B.n14 585
R98 B.n547 B.n546 585
R99 B.n548 B.n13 585
R100 B.n550 B.n549 585
R101 B.n551 B.n12 585
R102 B.n397 B.n396 585
R103 B.n395 B.n68 585
R104 B.n394 B.n393 585
R105 B.n392 B.n69 585
R106 B.n391 B.n390 585
R107 B.n389 B.n70 585
R108 B.n388 B.n387 585
R109 B.n386 B.n71 585
R110 B.n385 B.n384 585
R111 B.n383 B.n72 585
R112 B.n382 B.n381 585
R113 B.n380 B.n73 585
R114 B.n379 B.n378 585
R115 B.n377 B.n74 585
R116 B.n376 B.n375 585
R117 B.n374 B.n75 585
R118 B.n373 B.n372 585
R119 B.n371 B.n76 585
R120 B.n370 B.n369 585
R121 B.n368 B.n77 585
R122 B.n367 B.n366 585
R123 B.n365 B.n78 585
R124 B.n364 B.n363 585
R125 B.n362 B.n79 585
R126 B.n361 B.n360 585
R127 B.n359 B.n80 585
R128 B.n358 B.n357 585
R129 B.n356 B.n81 585
R130 B.n355 B.n354 585
R131 B.n353 B.n82 585
R132 B.n352 B.n351 585
R133 B.n350 B.n83 585
R134 B.n349 B.n348 585
R135 B.n347 B.n84 585
R136 B.n346 B.n345 585
R137 B.n344 B.n85 585
R138 B.n343 B.n342 585
R139 B.n341 B.n86 585
R140 B.n340 B.n339 585
R141 B.n338 B.n87 585
R142 B.n337 B.n336 585
R143 B.n182 B.n143 585
R144 B.n184 B.n183 585
R145 B.n185 B.n142 585
R146 B.n187 B.n186 585
R147 B.n188 B.n141 585
R148 B.n190 B.n189 585
R149 B.n191 B.n140 585
R150 B.n193 B.n192 585
R151 B.n194 B.n139 585
R152 B.n196 B.n195 585
R153 B.n197 B.n138 585
R154 B.n199 B.n198 585
R155 B.n200 B.n137 585
R156 B.n202 B.n201 585
R157 B.n203 B.n136 585
R158 B.n205 B.n204 585
R159 B.n206 B.n135 585
R160 B.n208 B.n207 585
R161 B.n209 B.n134 585
R162 B.n211 B.n210 585
R163 B.n212 B.n133 585
R164 B.n214 B.n213 585
R165 B.n215 B.n132 585
R166 B.n217 B.n216 585
R167 B.n218 B.n131 585
R168 B.n220 B.n219 585
R169 B.n221 B.n130 585
R170 B.n223 B.n222 585
R171 B.n224 B.n129 585
R172 B.n226 B.n225 585
R173 B.n227 B.n128 585
R174 B.n229 B.n228 585
R175 B.n230 B.n127 585
R176 B.n232 B.n231 585
R177 B.n233 B.n126 585
R178 B.n235 B.n234 585
R179 B.n236 B.n125 585
R180 B.n238 B.n237 585
R181 B.n239 B.n124 585
R182 B.n241 B.n240 585
R183 B.n242 B.n123 585
R184 B.n244 B.n243 585
R185 B.n245 B.n122 585
R186 B.n247 B.n246 585
R187 B.n248 B.n121 585
R188 B.n250 B.n249 585
R189 B.n252 B.n251 585
R190 B.n253 B.n117 585
R191 B.n255 B.n254 585
R192 B.n256 B.n116 585
R193 B.n258 B.n257 585
R194 B.n259 B.n115 585
R195 B.n261 B.n260 585
R196 B.n262 B.n114 585
R197 B.n264 B.n263 585
R198 B.n265 B.n111 585
R199 B.n268 B.n267 585
R200 B.n269 B.n110 585
R201 B.n271 B.n270 585
R202 B.n272 B.n109 585
R203 B.n274 B.n273 585
R204 B.n275 B.n108 585
R205 B.n277 B.n276 585
R206 B.n278 B.n107 585
R207 B.n280 B.n279 585
R208 B.n281 B.n106 585
R209 B.n283 B.n282 585
R210 B.n284 B.n105 585
R211 B.n286 B.n285 585
R212 B.n287 B.n104 585
R213 B.n289 B.n288 585
R214 B.n290 B.n103 585
R215 B.n292 B.n291 585
R216 B.n293 B.n102 585
R217 B.n295 B.n294 585
R218 B.n296 B.n101 585
R219 B.n298 B.n297 585
R220 B.n299 B.n100 585
R221 B.n301 B.n300 585
R222 B.n302 B.n99 585
R223 B.n304 B.n303 585
R224 B.n305 B.n98 585
R225 B.n307 B.n306 585
R226 B.n308 B.n97 585
R227 B.n310 B.n309 585
R228 B.n311 B.n96 585
R229 B.n313 B.n312 585
R230 B.n314 B.n95 585
R231 B.n316 B.n315 585
R232 B.n317 B.n94 585
R233 B.n319 B.n318 585
R234 B.n320 B.n93 585
R235 B.n322 B.n321 585
R236 B.n323 B.n92 585
R237 B.n325 B.n324 585
R238 B.n326 B.n91 585
R239 B.n328 B.n327 585
R240 B.n329 B.n90 585
R241 B.n331 B.n330 585
R242 B.n332 B.n89 585
R243 B.n334 B.n333 585
R244 B.n335 B.n88 585
R245 B.n181 B.n180 585
R246 B.n179 B.n144 585
R247 B.n178 B.n177 585
R248 B.n176 B.n145 585
R249 B.n175 B.n174 585
R250 B.n173 B.n146 585
R251 B.n172 B.n171 585
R252 B.n170 B.n147 585
R253 B.n169 B.n168 585
R254 B.n167 B.n148 585
R255 B.n166 B.n165 585
R256 B.n164 B.n149 585
R257 B.n163 B.n162 585
R258 B.n161 B.n150 585
R259 B.n160 B.n159 585
R260 B.n158 B.n151 585
R261 B.n157 B.n156 585
R262 B.n155 B.n152 585
R263 B.n154 B.n153 585
R264 B.n2 B.n0 585
R265 B.n581 B.n1 585
R266 B.n580 B.n579 585
R267 B.n578 B.n3 585
R268 B.n577 B.n576 585
R269 B.n575 B.n4 585
R270 B.n574 B.n573 585
R271 B.n572 B.n5 585
R272 B.n571 B.n570 585
R273 B.n569 B.n6 585
R274 B.n568 B.n567 585
R275 B.n566 B.n7 585
R276 B.n565 B.n564 585
R277 B.n563 B.n8 585
R278 B.n562 B.n561 585
R279 B.n560 B.n9 585
R280 B.n559 B.n558 585
R281 B.n557 B.n10 585
R282 B.n556 B.n555 585
R283 B.n554 B.n11 585
R284 B.n553 B.n552 585
R285 B.n583 B.n582 585
R286 B.n180 B.n143 535.745
R287 B.n552 B.n551 535.745
R288 B.n336 B.n335 535.745
R289 B.n396 B.n67 535.745
R290 B.n112 B.t5 443.854
R291 B.n42 B.t7 443.854
R292 B.n118 B.t2 443.854
R293 B.n36 B.t10 443.854
R294 B.n113 B.t4 403.904
R295 B.n43 B.t8 403.904
R296 B.n119 B.t1 403.902
R297 B.n37 B.t11 403.902
R298 B.n112 B.t3 395.104
R299 B.n118 B.t0 395.104
R300 B.n36 B.t9 395.104
R301 B.n42 B.t6 395.104
R302 B.n180 B.n179 163.367
R303 B.n179 B.n178 163.367
R304 B.n178 B.n145 163.367
R305 B.n174 B.n145 163.367
R306 B.n174 B.n173 163.367
R307 B.n173 B.n172 163.367
R308 B.n172 B.n147 163.367
R309 B.n168 B.n147 163.367
R310 B.n168 B.n167 163.367
R311 B.n167 B.n166 163.367
R312 B.n166 B.n149 163.367
R313 B.n162 B.n149 163.367
R314 B.n162 B.n161 163.367
R315 B.n161 B.n160 163.367
R316 B.n160 B.n151 163.367
R317 B.n156 B.n151 163.367
R318 B.n156 B.n155 163.367
R319 B.n155 B.n154 163.367
R320 B.n154 B.n2 163.367
R321 B.n582 B.n2 163.367
R322 B.n582 B.n581 163.367
R323 B.n581 B.n580 163.367
R324 B.n580 B.n3 163.367
R325 B.n576 B.n3 163.367
R326 B.n576 B.n575 163.367
R327 B.n575 B.n574 163.367
R328 B.n574 B.n5 163.367
R329 B.n570 B.n5 163.367
R330 B.n570 B.n569 163.367
R331 B.n569 B.n568 163.367
R332 B.n568 B.n7 163.367
R333 B.n564 B.n7 163.367
R334 B.n564 B.n563 163.367
R335 B.n563 B.n562 163.367
R336 B.n562 B.n9 163.367
R337 B.n558 B.n9 163.367
R338 B.n558 B.n557 163.367
R339 B.n557 B.n556 163.367
R340 B.n556 B.n11 163.367
R341 B.n552 B.n11 163.367
R342 B.n184 B.n143 163.367
R343 B.n185 B.n184 163.367
R344 B.n186 B.n185 163.367
R345 B.n186 B.n141 163.367
R346 B.n190 B.n141 163.367
R347 B.n191 B.n190 163.367
R348 B.n192 B.n191 163.367
R349 B.n192 B.n139 163.367
R350 B.n196 B.n139 163.367
R351 B.n197 B.n196 163.367
R352 B.n198 B.n197 163.367
R353 B.n198 B.n137 163.367
R354 B.n202 B.n137 163.367
R355 B.n203 B.n202 163.367
R356 B.n204 B.n203 163.367
R357 B.n204 B.n135 163.367
R358 B.n208 B.n135 163.367
R359 B.n209 B.n208 163.367
R360 B.n210 B.n209 163.367
R361 B.n210 B.n133 163.367
R362 B.n214 B.n133 163.367
R363 B.n215 B.n214 163.367
R364 B.n216 B.n215 163.367
R365 B.n216 B.n131 163.367
R366 B.n220 B.n131 163.367
R367 B.n221 B.n220 163.367
R368 B.n222 B.n221 163.367
R369 B.n222 B.n129 163.367
R370 B.n226 B.n129 163.367
R371 B.n227 B.n226 163.367
R372 B.n228 B.n227 163.367
R373 B.n228 B.n127 163.367
R374 B.n232 B.n127 163.367
R375 B.n233 B.n232 163.367
R376 B.n234 B.n233 163.367
R377 B.n234 B.n125 163.367
R378 B.n238 B.n125 163.367
R379 B.n239 B.n238 163.367
R380 B.n240 B.n239 163.367
R381 B.n240 B.n123 163.367
R382 B.n244 B.n123 163.367
R383 B.n245 B.n244 163.367
R384 B.n246 B.n245 163.367
R385 B.n246 B.n121 163.367
R386 B.n250 B.n121 163.367
R387 B.n251 B.n250 163.367
R388 B.n251 B.n117 163.367
R389 B.n255 B.n117 163.367
R390 B.n256 B.n255 163.367
R391 B.n257 B.n256 163.367
R392 B.n257 B.n115 163.367
R393 B.n261 B.n115 163.367
R394 B.n262 B.n261 163.367
R395 B.n263 B.n262 163.367
R396 B.n263 B.n111 163.367
R397 B.n268 B.n111 163.367
R398 B.n269 B.n268 163.367
R399 B.n270 B.n269 163.367
R400 B.n270 B.n109 163.367
R401 B.n274 B.n109 163.367
R402 B.n275 B.n274 163.367
R403 B.n276 B.n275 163.367
R404 B.n276 B.n107 163.367
R405 B.n280 B.n107 163.367
R406 B.n281 B.n280 163.367
R407 B.n282 B.n281 163.367
R408 B.n282 B.n105 163.367
R409 B.n286 B.n105 163.367
R410 B.n287 B.n286 163.367
R411 B.n288 B.n287 163.367
R412 B.n288 B.n103 163.367
R413 B.n292 B.n103 163.367
R414 B.n293 B.n292 163.367
R415 B.n294 B.n293 163.367
R416 B.n294 B.n101 163.367
R417 B.n298 B.n101 163.367
R418 B.n299 B.n298 163.367
R419 B.n300 B.n299 163.367
R420 B.n300 B.n99 163.367
R421 B.n304 B.n99 163.367
R422 B.n305 B.n304 163.367
R423 B.n306 B.n305 163.367
R424 B.n306 B.n97 163.367
R425 B.n310 B.n97 163.367
R426 B.n311 B.n310 163.367
R427 B.n312 B.n311 163.367
R428 B.n312 B.n95 163.367
R429 B.n316 B.n95 163.367
R430 B.n317 B.n316 163.367
R431 B.n318 B.n317 163.367
R432 B.n318 B.n93 163.367
R433 B.n322 B.n93 163.367
R434 B.n323 B.n322 163.367
R435 B.n324 B.n323 163.367
R436 B.n324 B.n91 163.367
R437 B.n328 B.n91 163.367
R438 B.n329 B.n328 163.367
R439 B.n330 B.n329 163.367
R440 B.n330 B.n89 163.367
R441 B.n334 B.n89 163.367
R442 B.n335 B.n334 163.367
R443 B.n336 B.n87 163.367
R444 B.n340 B.n87 163.367
R445 B.n341 B.n340 163.367
R446 B.n342 B.n341 163.367
R447 B.n342 B.n85 163.367
R448 B.n346 B.n85 163.367
R449 B.n347 B.n346 163.367
R450 B.n348 B.n347 163.367
R451 B.n348 B.n83 163.367
R452 B.n352 B.n83 163.367
R453 B.n353 B.n352 163.367
R454 B.n354 B.n353 163.367
R455 B.n354 B.n81 163.367
R456 B.n358 B.n81 163.367
R457 B.n359 B.n358 163.367
R458 B.n360 B.n359 163.367
R459 B.n360 B.n79 163.367
R460 B.n364 B.n79 163.367
R461 B.n365 B.n364 163.367
R462 B.n366 B.n365 163.367
R463 B.n366 B.n77 163.367
R464 B.n370 B.n77 163.367
R465 B.n371 B.n370 163.367
R466 B.n372 B.n371 163.367
R467 B.n372 B.n75 163.367
R468 B.n376 B.n75 163.367
R469 B.n377 B.n376 163.367
R470 B.n378 B.n377 163.367
R471 B.n378 B.n73 163.367
R472 B.n382 B.n73 163.367
R473 B.n383 B.n382 163.367
R474 B.n384 B.n383 163.367
R475 B.n384 B.n71 163.367
R476 B.n388 B.n71 163.367
R477 B.n389 B.n388 163.367
R478 B.n390 B.n389 163.367
R479 B.n390 B.n69 163.367
R480 B.n394 B.n69 163.367
R481 B.n395 B.n394 163.367
R482 B.n396 B.n395 163.367
R483 B.n551 B.n550 163.367
R484 B.n550 B.n13 163.367
R485 B.n546 B.n13 163.367
R486 B.n546 B.n545 163.367
R487 B.n545 B.n544 163.367
R488 B.n544 B.n15 163.367
R489 B.n540 B.n15 163.367
R490 B.n540 B.n539 163.367
R491 B.n539 B.n538 163.367
R492 B.n538 B.n17 163.367
R493 B.n534 B.n17 163.367
R494 B.n534 B.n533 163.367
R495 B.n533 B.n532 163.367
R496 B.n532 B.n19 163.367
R497 B.n528 B.n19 163.367
R498 B.n528 B.n527 163.367
R499 B.n527 B.n526 163.367
R500 B.n526 B.n21 163.367
R501 B.n522 B.n21 163.367
R502 B.n522 B.n521 163.367
R503 B.n521 B.n520 163.367
R504 B.n520 B.n23 163.367
R505 B.n516 B.n23 163.367
R506 B.n516 B.n515 163.367
R507 B.n515 B.n514 163.367
R508 B.n514 B.n25 163.367
R509 B.n510 B.n25 163.367
R510 B.n510 B.n509 163.367
R511 B.n509 B.n508 163.367
R512 B.n508 B.n27 163.367
R513 B.n504 B.n27 163.367
R514 B.n504 B.n503 163.367
R515 B.n503 B.n502 163.367
R516 B.n502 B.n29 163.367
R517 B.n498 B.n29 163.367
R518 B.n498 B.n497 163.367
R519 B.n497 B.n496 163.367
R520 B.n496 B.n31 163.367
R521 B.n492 B.n31 163.367
R522 B.n492 B.n491 163.367
R523 B.n491 B.n490 163.367
R524 B.n490 B.n33 163.367
R525 B.n486 B.n33 163.367
R526 B.n486 B.n485 163.367
R527 B.n485 B.n484 163.367
R528 B.n484 B.n35 163.367
R529 B.n479 B.n35 163.367
R530 B.n479 B.n478 163.367
R531 B.n478 B.n477 163.367
R532 B.n477 B.n39 163.367
R533 B.n473 B.n39 163.367
R534 B.n473 B.n472 163.367
R535 B.n472 B.n471 163.367
R536 B.n471 B.n41 163.367
R537 B.n467 B.n41 163.367
R538 B.n467 B.n466 163.367
R539 B.n466 B.n45 163.367
R540 B.n462 B.n45 163.367
R541 B.n462 B.n461 163.367
R542 B.n461 B.n460 163.367
R543 B.n460 B.n47 163.367
R544 B.n456 B.n47 163.367
R545 B.n456 B.n455 163.367
R546 B.n455 B.n454 163.367
R547 B.n454 B.n49 163.367
R548 B.n450 B.n49 163.367
R549 B.n450 B.n449 163.367
R550 B.n449 B.n448 163.367
R551 B.n448 B.n51 163.367
R552 B.n444 B.n51 163.367
R553 B.n444 B.n443 163.367
R554 B.n443 B.n442 163.367
R555 B.n442 B.n53 163.367
R556 B.n438 B.n53 163.367
R557 B.n438 B.n437 163.367
R558 B.n437 B.n436 163.367
R559 B.n436 B.n55 163.367
R560 B.n432 B.n55 163.367
R561 B.n432 B.n431 163.367
R562 B.n431 B.n430 163.367
R563 B.n430 B.n57 163.367
R564 B.n426 B.n57 163.367
R565 B.n426 B.n425 163.367
R566 B.n425 B.n424 163.367
R567 B.n424 B.n59 163.367
R568 B.n420 B.n59 163.367
R569 B.n420 B.n419 163.367
R570 B.n419 B.n418 163.367
R571 B.n418 B.n61 163.367
R572 B.n414 B.n61 163.367
R573 B.n414 B.n413 163.367
R574 B.n413 B.n412 163.367
R575 B.n412 B.n63 163.367
R576 B.n408 B.n63 163.367
R577 B.n408 B.n407 163.367
R578 B.n407 B.n406 163.367
R579 B.n406 B.n65 163.367
R580 B.n402 B.n65 163.367
R581 B.n402 B.n401 163.367
R582 B.n401 B.n400 163.367
R583 B.n400 B.n67 163.367
R584 B.n266 B.n113 59.5399
R585 B.n120 B.n119 59.5399
R586 B.n482 B.n37 59.5399
R587 B.n44 B.n43 59.5399
R588 B.n113 B.n112 39.952
R589 B.n119 B.n118 39.952
R590 B.n37 B.n36 39.952
R591 B.n43 B.n42 39.952
R592 B.n553 B.n12 34.8103
R593 B.n398 B.n397 34.8103
R594 B.n337 B.n88 34.8103
R595 B.n182 B.n181 34.8103
R596 B B.n583 18.0485
R597 B.n549 B.n12 10.6151
R598 B.n549 B.n548 10.6151
R599 B.n548 B.n547 10.6151
R600 B.n547 B.n14 10.6151
R601 B.n543 B.n14 10.6151
R602 B.n543 B.n542 10.6151
R603 B.n542 B.n541 10.6151
R604 B.n541 B.n16 10.6151
R605 B.n537 B.n16 10.6151
R606 B.n537 B.n536 10.6151
R607 B.n536 B.n535 10.6151
R608 B.n535 B.n18 10.6151
R609 B.n531 B.n18 10.6151
R610 B.n531 B.n530 10.6151
R611 B.n530 B.n529 10.6151
R612 B.n529 B.n20 10.6151
R613 B.n525 B.n20 10.6151
R614 B.n525 B.n524 10.6151
R615 B.n524 B.n523 10.6151
R616 B.n523 B.n22 10.6151
R617 B.n519 B.n22 10.6151
R618 B.n519 B.n518 10.6151
R619 B.n518 B.n517 10.6151
R620 B.n517 B.n24 10.6151
R621 B.n513 B.n24 10.6151
R622 B.n513 B.n512 10.6151
R623 B.n512 B.n511 10.6151
R624 B.n511 B.n26 10.6151
R625 B.n507 B.n26 10.6151
R626 B.n507 B.n506 10.6151
R627 B.n506 B.n505 10.6151
R628 B.n505 B.n28 10.6151
R629 B.n501 B.n28 10.6151
R630 B.n501 B.n500 10.6151
R631 B.n500 B.n499 10.6151
R632 B.n499 B.n30 10.6151
R633 B.n495 B.n30 10.6151
R634 B.n495 B.n494 10.6151
R635 B.n494 B.n493 10.6151
R636 B.n493 B.n32 10.6151
R637 B.n489 B.n32 10.6151
R638 B.n489 B.n488 10.6151
R639 B.n488 B.n487 10.6151
R640 B.n487 B.n34 10.6151
R641 B.n483 B.n34 10.6151
R642 B.n481 B.n480 10.6151
R643 B.n480 B.n38 10.6151
R644 B.n476 B.n38 10.6151
R645 B.n476 B.n475 10.6151
R646 B.n475 B.n474 10.6151
R647 B.n474 B.n40 10.6151
R648 B.n470 B.n40 10.6151
R649 B.n470 B.n469 10.6151
R650 B.n469 B.n468 10.6151
R651 B.n465 B.n464 10.6151
R652 B.n464 B.n463 10.6151
R653 B.n463 B.n46 10.6151
R654 B.n459 B.n46 10.6151
R655 B.n459 B.n458 10.6151
R656 B.n458 B.n457 10.6151
R657 B.n457 B.n48 10.6151
R658 B.n453 B.n48 10.6151
R659 B.n453 B.n452 10.6151
R660 B.n452 B.n451 10.6151
R661 B.n451 B.n50 10.6151
R662 B.n447 B.n50 10.6151
R663 B.n447 B.n446 10.6151
R664 B.n446 B.n445 10.6151
R665 B.n445 B.n52 10.6151
R666 B.n441 B.n52 10.6151
R667 B.n441 B.n440 10.6151
R668 B.n440 B.n439 10.6151
R669 B.n439 B.n54 10.6151
R670 B.n435 B.n54 10.6151
R671 B.n435 B.n434 10.6151
R672 B.n434 B.n433 10.6151
R673 B.n433 B.n56 10.6151
R674 B.n429 B.n56 10.6151
R675 B.n429 B.n428 10.6151
R676 B.n428 B.n427 10.6151
R677 B.n427 B.n58 10.6151
R678 B.n423 B.n58 10.6151
R679 B.n423 B.n422 10.6151
R680 B.n422 B.n421 10.6151
R681 B.n421 B.n60 10.6151
R682 B.n417 B.n60 10.6151
R683 B.n417 B.n416 10.6151
R684 B.n416 B.n415 10.6151
R685 B.n415 B.n62 10.6151
R686 B.n411 B.n62 10.6151
R687 B.n411 B.n410 10.6151
R688 B.n410 B.n409 10.6151
R689 B.n409 B.n64 10.6151
R690 B.n405 B.n64 10.6151
R691 B.n405 B.n404 10.6151
R692 B.n404 B.n403 10.6151
R693 B.n403 B.n66 10.6151
R694 B.n399 B.n66 10.6151
R695 B.n399 B.n398 10.6151
R696 B.n338 B.n337 10.6151
R697 B.n339 B.n338 10.6151
R698 B.n339 B.n86 10.6151
R699 B.n343 B.n86 10.6151
R700 B.n344 B.n343 10.6151
R701 B.n345 B.n344 10.6151
R702 B.n345 B.n84 10.6151
R703 B.n349 B.n84 10.6151
R704 B.n350 B.n349 10.6151
R705 B.n351 B.n350 10.6151
R706 B.n351 B.n82 10.6151
R707 B.n355 B.n82 10.6151
R708 B.n356 B.n355 10.6151
R709 B.n357 B.n356 10.6151
R710 B.n357 B.n80 10.6151
R711 B.n361 B.n80 10.6151
R712 B.n362 B.n361 10.6151
R713 B.n363 B.n362 10.6151
R714 B.n363 B.n78 10.6151
R715 B.n367 B.n78 10.6151
R716 B.n368 B.n367 10.6151
R717 B.n369 B.n368 10.6151
R718 B.n369 B.n76 10.6151
R719 B.n373 B.n76 10.6151
R720 B.n374 B.n373 10.6151
R721 B.n375 B.n374 10.6151
R722 B.n375 B.n74 10.6151
R723 B.n379 B.n74 10.6151
R724 B.n380 B.n379 10.6151
R725 B.n381 B.n380 10.6151
R726 B.n381 B.n72 10.6151
R727 B.n385 B.n72 10.6151
R728 B.n386 B.n385 10.6151
R729 B.n387 B.n386 10.6151
R730 B.n387 B.n70 10.6151
R731 B.n391 B.n70 10.6151
R732 B.n392 B.n391 10.6151
R733 B.n393 B.n392 10.6151
R734 B.n393 B.n68 10.6151
R735 B.n397 B.n68 10.6151
R736 B.n183 B.n182 10.6151
R737 B.n183 B.n142 10.6151
R738 B.n187 B.n142 10.6151
R739 B.n188 B.n187 10.6151
R740 B.n189 B.n188 10.6151
R741 B.n189 B.n140 10.6151
R742 B.n193 B.n140 10.6151
R743 B.n194 B.n193 10.6151
R744 B.n195 B.n194 10.6151
R745 B.n195 B.n138 10.6151
R746 B.n199 B.n138 10.6151
R747 B.n200 B.n199 10.6151
R748 B.n201 B.n200 10.6151
R749 B.n201 B.n136 10.6151
R750 B.n205 B.n136 10.6151
R751 B.n206 B.n205 10.6151
R752 B.n207 B.n206 10.6151
R753 B.n207 B.n134 10.6151
R754 B.n211 B.n134 10.6151
R755 B.n212 B.n211 10.6151
R756 B.n213 B.n212 10.6151
R757 B.n213 B.n132 10.6151
R758 B.n217 B.n132 10.6151
R759 B.n218 B.n217 10.6151
R760 B.n219 B.n218 10.6151
R761 B.n219 B.n130 10.6151
R762 B.n223 B.n130 10.6151
R763 B.n224 B.n223 10.6151
R764 B.n225 B.n224 10.6151
R765 B.n225 B.n128 10.6151
R766 B.n229 B.n128 10.6151
R767 B.n230 B.n229 10.6151
R768 B.n231 B.n230 10.6151
R769 B.n231 B.n126 10.6151
R770 B.n235 B.n126 10.6151
R771 B.n236 B.n235 10.6151
R772 B.n237 B.n236 10.6151
R773 B.n237 B.n124 10.6151
R774 B.n241 B.n124 10.6151
R775 B.n242 B.n241 10.6151
R776 B.n243 B.n242 10.6151
R777 B.n243 B.n122 10.6151
R778 B.n247 B.n122 10.6151
R779 B.n248 B.n247 10.6151
R780 B.n249 B.n248 10.6151
R781 B.n253 B.n252 10.6151
R782 B.n254 B.n253 10.6151
R783 B.n254 B.n116 10.6151
R784 B.n258 B.n116 10.6151
R785 B.n259 B.n258 10.6151
R786 B.n260 B.n259 10.6151
R787 B.n260 B.n114 10.6151
R788 B.n264 B.n114 10.6151
R789 B.n265 B.n264 10.6151
R790 B.n267 B.n110 10.6151
R791 B.n271 B.n110 10.6151
R792 B.n272 B.n271 10.6151
R793 B.n273 B.n272 10.6151
R794 B.n273 B.n108 10.6151
R795 B.n277 B.n108 10.6151
R796 B.n278 B.n277 10.6151
R797 B.n279 B.n278 10.6151
R798 B.n279 B.n106 10.6151
R799 B.n283 B.n106 10.6151
R800 B.n284 B.n283 10.6151
R801 B.n285 B.n284 10.6151
R802 B.n285 B.n104 10.6151
R803 B.n289 B.n104 10.6151
R804 B.n290 B.n289 10.6151
R805 B.n291 B.n290 10.6151
R806 B.n291 B.n102 10.6151
R807 B.n295 B.n102 10.6151
R808 B.n296 B.n295 10.6151
R809 B.n297 B.n296 10.6151
R810 B.n297 B.n100 10.6151
R811 B.n301 B.n100 10.6151
R812 B.n302 B.n301 10.6151
R813 B.n303 B.n302 10.6151
R814 B.n303 B.n98 10.6151
R815 B.n307 B.n98 10.6151
R816 B.n308 B.n307 10.6151
R817 B.n309 B.n308 10.6151
R818 B.n309 B.n96 10.6151
R819 B.n313 B.n96 10.6151
R820 B.n314 B.n313 10.6151
R821 B.n315 B.n314 10.6151
R822 B.n315 B.n94 10.6151
R823 B.n319 B.n94 10.6151
R824 B.n320 B.n319 10.6151
R825 B.n321 B.n320 10.6151
R826 B.n321 B.n92 10.6151
R827 B.n325 B.n92 10.6151
R828 B.n326 B.n325 10.6151
R829 B.n327 B.n326 10.6151
R830 B.n327 B.n90 10.6151
R831 B.n331 B.n90 10.6151
R832 B.n332 B.n331 10.6151
R833 B.n333 B.n332 10.6151
R834 B.n333 B.n88 10.6151
R835 B.n181 B.n144 10.6151
R836 B.n177 B.n144 10.6151
R837 B.n177 B.n176 10.6151
R838 B.n176 B.n175 10.6151
R839 B.n175 B.n146 10.6151
R840 B.n171 B.n146 10.6151
R841 B.n171 B.n170 10.6151
R842 B.n170 B.n169 10.6151
R843 B.n169 B.n148 10.6151
R844 B.n165 B.n148 10.6151
R845 B.n165 B.n164 10.6151
R846 B.n164 B.n163 10.6151
R847 B.n163 B.n150 10.6151
R848 B.n159 B.n150 10.6151
R849 B.n159 B.n158 10.6151
R850 B.n158 B.n157 10.6151
R851 B.n157 B.n152 10.6151
R852 B.n153 B.n152 10.6151
R853 B.n153 B.n0 10.6151
R854 B.n579 B.n1 10.6151
R855 B.n579 B.n578 10.6151
R856 B.n578 B.n577 10.6151
R857 B.n577 B.n4 10.6151
R858 B.n573 B.n4 10.6151
R859 B.n573 B.n572 10.6151
R860 B.n572 B.n571 10.6151
R861 B.n571 B.n6 10.6151
R862 B.n567 B.n6 10.6151
R863 B.n567 B.n566 10.6151
R864 B.n566 B.n565 10.6151
R865 B.n565 B.n8 10.6151
R866 B.n561 B.n8 10.6151
R867 B.n561 B.n560 10.6151
R868 B.n560 B.n559 10.6151
R869 B.n559 B.n10 10.6151
R870 B.n555 B.n10 10.6151
R871 B.n555 B.n554 10.6151
R872 B.n554 B.n553 10.6151
R873 B.n483 B.n482 9.36635
R874 B.n465 B.n44 9.36635
R875 B.n249 B.n120 9.36635
R876 B.n267 B.n266 9.36635
R877 B.n583 B.n0 2.81026
R878 B.n583 B.n1 2.81026
R879 B.n482 B.n481 1.24928
R880 B.n468 B.n44 1.24928
R881 B.n252 B.n120 1.24928
R882 B.n266 B.n265 1.24928
R883 VN VN.t1 291.459
R884 VN VN.t0 247.976
R885 VTAIL.n290 VTAIL.n222 756.745
R886 VTAIL.n68 VTAIL.n0 756.745
R887 VTAIL.n216 VTAIL.n148 756.745
R888 VTAIL.n142 VTAIL.n74 756.745
R889 VTAIL.n247 VTAIL.n246 585
R890 VTAIL.n249 VTAIL.n248 585
R891 VTAIL.n242 VTAIL.n241 585
R892 VTAIL.n255 VTAIL.n254 585
R893 VTAIL.n257 VTAIL.n256 585
R894 VTAIL.n238 VTAIL.n237 585
R895 VTAIL.n264 VTAIL.n263 585
R896 VTAIL.n265 VTAIL.n236 585
R897 VTAIL.n267 VTAIL.n266 585
R898 VTAIL.n234 VTAIL.n233 585
R899 VTAIL.n273 VTAIL.n272 585
R900 VTAIL.n275 VTAIL.n274 585
R901 VTAIL.n230 VTAIL.n229 585
R902 VTAIL.n281 VTAIL.n280 585
R903 VTAIL.n283 VTAIL.n282 585
R904 VTAIL.n226 VTAIL.n225 585
R905 VTAIL.n289 VTAIL.n288 585
R906 VTAIL.n291 VTAIL.n290 585
R907 VTAIL.n25 VTAIL.n24 585
R908 VTAIL.n27 VTAIL.n26 585
R909 VTAIL.n20 VTAIL.n19 585
R910 VTAIL.n33 VTAIL.n32 585
R911 VTAIL.n35 VTAIL.n34 585
R912 VTAIL.n16 VTAIL.n15 585
R913 VTAIL.n42 VTAIL.n41 585
R914 VTAIL.n43 VTAIL.n14 585
R915 VTAIL.n45 VTAIL.n44 585
R916 VTAIL.n12 VTAIL.n11 585
R917 VTAIL.n51 VTAIL.n50 585
R918 VTAIL.n53 VTAIL.n52 585
R919 VTAIL.n8 VTAIL.n7 585
R920 VTAIL.n59 VTAIL.n58 585
R921 VTAIL.n61 VTAIL.n60 585
R922 VTAIL.n4 VTAIL.n3 585
R923 VTAIL.n67 VTAIL.n66 585
R924 VTAIL.n69 VTAIL.n68 585
R925 VTAIL.n217 VTAIL.n216 585
R926 VTAIL.n215 VTAIL.n214 585
R927 VTAIL.n152 VTAIL.n151 585
R928 VTAIL.n209 VTAIL.n208 585
R929 VTAIL.n207 VTAIL.n206 585
R930 VTAIL.n156 VTAIL.n155 585
R931 VTAIL.n201 VTAIL.n200 585
R932 VTAIL.n199 VTAIL.n198 585
R933 VTAIL.n160 VTAIL.n159 585
R934 VTAIL.n164 VTAIL.n162 585
R935 VTAIL.n193 VTAIL.n192 585
R936 VTAIL.n191 VTAIL.n190 585
R937 VTAIL.n166 VTAIL.n165 585
R938 VTAIL.n185 VTAIL.n184 585
R939 VTAIL.n183 VTAIL.n182 585
R940 VTAIL.n170 VTAIL.n169 585
R941 VTAIL.n177 VTAIL.n176 585
R942 VTAIL.n175 VTAIL.n174 585
R943 VTAIL.n143 VTAIL.n142 585
R944 VTAIL.n141 VTAIL.n140 585
R945 VTAIL.n78 VTAIL.n77 585
R946 VTAIL.n135 VTAIL.n134 585
R947 VTAIL.n133 VTAIL.n132 585
R948 VTAIL.n82 VTAIL.n81 585
R949 VTAIL.n127 VTAIL.n126 585
R950 VTAIL.n125 VTAIL.n124 585
R951 VTAIL.n86 VTAIL.n85 585
R952 VTAIL.n90 VTAIL.n88 585
R953 VTAIL.n119 VTAIL.n118 585
R954 VTAIL.n117 VTAIL.n116 585
R955 VTAIL.n92 VTAIL.n91 585
R956 VTAIL.n111 VTAIL.n110 585
R957 VTAIL.n109 VTAIL.n108 585
R958 VTAIL.n96 VTAIL.n95 585
R959 VTAIL.n103 VTAIL.n102 585
R960 VTAIL.n101 VTAIL.n100 585
R961 VTAIL.n245 VTAIL.t3 329.036
R962 VTAIL.n23 VTAIL.t1 329.036
R963 VTAIL.n173 VTAIL.t0 329.036
R964 VTAIL.n99 VTAIL.t2 329.036
R965 VTAIL.n248 VTAIL.n247 171.744
R966 VTAIL.n248 VTAIL.n241 171.744
R967 VTAIL.n255 VTAIL.n241 171.744
R968 VTAIL.n256 VTAIL.n255 171.744
R969 VTAIL.n256 VTAIL.n237 171.744
R970 VTAIL.n264 VTAIL.n237 171.744
R971 VTAIL.n265 VTAIL.n264 171.744
R972 VTAIL.n266 VTAIL.n265 171.744
R973 VTAIL.n266 VTAIL.n233 171.744
R974 VTAIL.n273 VTAIL.n233 171.744
R975 VTAIL.n274 VTAIL.n273 171.744
R976 VTAIL.n274 VTAIL.n229 171.744
R977 VTAIL.n281 VTAIL.n229 171.744
R978 VTAIL.n282 VTAIL.n281 171.744
R979 VTAIL.n282 VTAIL.n225 171.744
R980 VTAIL.n289 VTAIL.n225 171.744
R981 VTAIL.n290 VTAIL.n289 171.744
R982 VTAIL.n26 VTAIL.n25 171.744
R983 VTAIL.n26 VTAIL.n19 171.744
R984 VTAIL.n33 VTAIL.n19 171.744
R985 VTAIL.n34 VTAIL.n33 171.744
R986 VTAIL.n34 VTAIL.n15 171.744
R987 VTAIL.n42 VTAIL.n15 171.744
R988 VTAIL.n43 VTAIL.n42 171.744
R989 VTAIL.n44 VTAIL.n43 171.744
R990 VTAIL.n44 VTAIL.n11 171.744
R991 VTAIL.n51 VTAIL.n11 171.744
R992 VTAIL.n52 VTAIL.n51 171.744
R993 VTAIL.n52 VTAIL.n7 171.744
R994 VTAIL.n59 VTAIL.n7 171.744
R995 VTAIL.n60 VTAIL.n59 171.744
R996 VTAIL.n60 VTAIL.n3 171.744
R997 VTAIL.n67 VTAIL.n3 171.744
R998 VTAIL.n68 VTAIL.n67 171.744
R999 VTAIL.n216 VTAIL.n215 171.744
R1000 VTAIL.n215 VTAIL.n151 171.744
R1001 VTAIL.n208 VTAIL.n151 171.744
R1002 VTAIL.n208 VTAIL.n207 171.744
R1003 VTAIL.n207 VTAIL.n155 171.744
R1004 VTAIL.n200 VTAIL.n155 171.744
R1005 VTAIL.n200 VTAIL.n199 171.744
R1006 VTAIL.n199 VTAIL.n159 171.744
R1007 VTAIL.n164 VTAIL.n159 171.744
R1008 VTAIL.n192 VTAIL.n164 171.744
R1009 VTAIL.n192 VTAIL.n191 171.744
R1010 VTAIL.n191 VTAIL.n165 171.744
R1011 VTAIL.n184 VTAIL.n165 171.744
R1012 VTAIL.n184 VTAIL.n183 171.744
R1013 VTAIL.n183 VTAIL.n169 171.744
R1014 VTAIL.n176 VTAIL.n169 171.744
R1015 VTAIL.n176 VTAIL.n175 171.744
R1016 VTAIL.n142 VTAIL.n141 171.744
R1017 VTAIL.n141 VTAIL.n77 171.744
R1018 VTAIL.n134 VTAIL.n77 171.744
R1019 VTAIL.n134 VTAIL.n133 171.744
R1020 VTAIL.n133 VTAIL.n81 171.744
R1021 VTAIL.n126 VTAIL.n81 171.744
R1022 VTAIL.n126 VTAIL.n125 171.744
R1023 VTAIL.n125 VTAIL.n85 171.744
R1024 VTAIL.n90 VTAIL.n85 171.744
R1025 VTAIL.n118 VTAIL.n90 171.744
R1026 VTAIL.n118 VTAIL.n117 171.744
R1027 VTAIL.n117 VTAIL.n91 171.744
R1028 VTAIL.n110 VTAIL.n91 171.744
R1029 VTAIL.n110 VTAIL.n109 171.744
R1030 VTAIL.n109 VTAIL.n95 171.744
R1031 VTAIL.n102 VTAIL.n95 171.744
R1032 VTAIL.n102 VTAIL.n101 171.744
R1033 VTAIL.n247 VTAIL.t3 85.8723
R1034 VTAIL.n25 VTAIL.t1 85.8723
R1035 VTAIL.n175 VTAIL.t0 85.8723
R1036 VTAIL.n101 VTAIL.t2 85.8723
R1037 VTAIL.n295 VTAIL.n294 32.1853
R1038 VTAIL.n73 VTAIL.n72 32.1853
R1039 VTAIL.n221 VTAIL.n220 32.1853
R1040 VTAIL.n147 VTAIL.n146 32.1853
R1041 VTAIL.n147 VTAIL.n73 27.6083
R1042 VTAIL.n295 VTAIL.n221 25.8324
R1043 VTAIL.n267 VTAIL.n234 13.1884
R1044 VTAIL.n45 VTAIL.n12 13.1884
R1045 VTAIL.n162 VTAIL.n160 13.1884
R1046 VTAIL.n88 VTAIL.n86 13.1884
R1047 VTAIL.n268 VTAIL.n236 12.8005
R1048 VTAIL.n272 VTAIL.n271 12.8005
R1049 VTAIL.n46 VTAIL.n14 12.8005
R1050 VTAIL.n50 VTAIL.n49 12.8005
R1051 VTAIL.n198 VTAIL.n197 12.8005
R1052 VTAIL.n194 VTAIL.n193 12.8005
R1053 VTAIL.n124 VTAIL.n123 12.8005
R1054 VTAIL.n120 VTAIL.n119 12.8005
R1055 VTAIL.n263 VTAIL.n262 12.0247
R1056 VTAIL.n275 VTAIL.n232 12.0247
R1057 VTAIL.n41 VTAIL.n40 12.0247
R1058 VTAIL.n53 VTAIL.n10 12.0247
R1059 VTAIL.n201 VTAIL.n158 12.0247
R1060 VTAIL.n190 VTAIL.n163 12.0247
R1061 VTAIL.n127 VTAIL.n84 12.0247
R1062 VTAIL.n116 VTAIL.n89 12.0247
R1063 VTAIL.n261 VTAIL.n238 11.249
R1064 VTAIL.n276 VTAIL.n230 11.249
R1065 VTAIL.n39 VTAIL.n16 11.249
R1066 VTAIL.n54 VTAIL.n8 11.249
R1067 VTAIL.n202 VTAIL.n156 11.249
R1068 VTAIL.n189 VTAIL.n166 11.249
R1069 VTAIL.n128 VTAIL.n82 11.249
R1070 VTAIL.n115 VTAIL.n92 11.249
R1071 VTAIL.n246 VTAIL.n245 10.7239
R1072 VTAIL.n24 VTAIL.n23 10.7239
R1073 VTAIL.n174 VTAIL.n173 10.7239
R1074 VTAIL.n100 VTAIL.n99 10.7239
R1075 VTAIL.n258 VTAIL.n257 10.4732
R1076 VTAIL.n280 VTAIL.n279 10.4732
R1077 VTAIL.n36 VTAIL.n35 10.4732
R1078 VTAIL.n58 VTAIL.n57 10.4732
R1079 VTAIL.n206 VTAIL.n205 10.4732
R1080 VTAIL.n186 VTAIL.n185 10.4732
R1081 VTAIL.n132 VTAIL.n131 10.4732
R1082 VTAIL.n112 VTAIL.n111 10.4732
R1083 VTAIL.n254 VTAIL.n240 9.69747
R1084 VTAIL.n283 VTAIL.n228 9.69747
R1085 VTAIL.n32 VTAIL.n18 9.69747
R1086 VTAIL.n61 VTAIL.n6 9.69747