* NGSPICE file created from opamp_sample_0013.ext - technology: sky130A

.subckt opamp_sample_0013 GND VOUT VDD VN VP CS_BIAS DIFFPAIR_BIAS
X0 VOUT.t44 GND.t128 VDD.t165 VDD.t86 sky130_fd_pr__pfet_01v8 ad=0.6138 pd=4.05 as=1.4508 ps=8.22 w=3.72 l=2.01
X1 GND.t123 GND.t121 GND.t122 GND.t73 sky130_fd_pr__nfet_01v8 ad=1.0101 pd=5.96 as=0 ps=0 w=2.59 l=4.93
X2 VOUT.t43 GND.t129 VDD.t164 VDD.t82 sky130_fd_pr__pfet_01v8 ad=1.4508 pd=8.22 as=0.6138 ps=4.05 w=3.72 l=2.01
X3 VOUT.t47 CS_BIAS.t8 GND.t127 GND.t29 sky130_fd_pr__nfet_01v8 ad=0.42735 pd=2.92 as=1.0101 ps=5.96 w=2.59 l=4.93
X4 CS_BIAS.t7 CS_BIAS.t6 GND.t31 GND.t29 sky130_fd_pr__nfet_01v8 ad=0.42735 pd=2.92 as=1.0101 ps=5.96 w=2.59 l=4.93
X5 VDD.t163 GND.t130 a_n2040_7754.t8 VDD.t162 sky130_fd_pr__pfet_01v8 ad=0.825 pd=5.33 as=1.95 ps=10.78 w=5 l=2.71
X6 VOUT.t42 GND.t131 VDD.t161 VDD.t130 sky130_fd_pr__pfet_01v8 ad=0.6138 pd=4.05 as=0.6138 ps=4.05 w=3.72 l=2.01
X7 GND.t120 GND.t118 GND.t119 GND.t37 sky130_fd_pr__nfet_01v8 ad=1.0101 pd=5.96 as=0 ps=0 w=2.59 l=4.93
X8 VDD.t80 VDD.t78 VDD.t79 VDD.t25 sky130_fd_pr__pfet_01v8 ad=1.4508 pd=8.22 as=0 ps=0 w=3.72 l=2.01
X9 VDD.t160 GND.t132 a_n5586_9514.t7 VDD.t159 sky130_fd_pr__pfet_01v8 ad=0.825 pd=5.33 as=1.95 ps=10.78 w=5 l=2.71
X10 a_n1816_n673.t10 VP.t3 GND.t15 GND.t14 sky130_fd_pr__nfet_01v8 ad=1.06755 pd=6.8 as=1.06755 ps=6.8 w=6.47 l=2.44
X11 VDD.t77 VDD.t75 VDD.t76 VDD.t69 sky130_fd_pr__pfet_01v8 ad=1.95 pd=10.78 as=0 ps=0 w=5 l=2.71
X12 VDD.t74 VDD.t72 VDD.t73 VDD.t25 sky130_fd_pr__pfet_01v8 ad=1.4508 pd=8.22 as=0 ps=0 w=3.72 l=2.01
X13 VOUT.t41 GND.t133 VDD.t158 VDD.t108 sky130_fd_pr__pfet_01v8 ad=0.6138 pd=4.05 as=1.4508 ps=8.22 w=3.72 l=2.01
X14 VDD.t71 VDD.t68 VDD.t70 VDD.t69 sky130_fd_pr__pfet_01v8 ad=1.95 pd=10.78 as=0 ps=0 w=5 l=2.71
X15 VDD.t67 VDD.t65 VDD.t66 VDD.t21 sky130_fd_pr__pfet_01v8 ad=1.4508 pd=8.22 as=0 ps=0 w=3.72 l=2.01
X16 GND.t117 GND.t115 GND.t116 GND.t61 sky130_fd_pr__nfet_01v8 ad=2.5233 pd=13.72 as=0 ps=0 w=6.47 l=2.44
X17 VOUT.t40 GND.t134 VDD.t157 VDD.t108 sky130_fd_pr__pfet_01v8 ad=0.6138 pd=4.05 as=1.4508 ps=8.22 w=3.72 l=2.01
X18 VDD.t156 GND.t135 VOUT.t39 VDD.t100 sky130_fd_pr__pfet_01v8 ad=0.6138 pd=4.05 as=0.6138 ps=4.05 w=3.72 l=2.01
X19 VOUT.t38 GND.t136 VDD.t155 VDD.t130 sky130_fd_pr__pfet_01v8 ad=0.6138 pd=4.05 as=0.6138 ps=4.05 w=3.72 l=2.01
X20 VOUT.t1 CS_BIAS.t9 GND.t18 GND.t10 sky130_fd_pr__nfet_01v8 ad=0.42735 pd=2.92 as=1.0101 ps=5.96 w=2.59 l=4.93
X21 VOUT.t48 a_n2040_7754.t0 sky130_fd_pr__cap_mim_m3_1 l=8.2 w=5.36
X22 VOUT.t0 CS_BIAS.t10 GND.t11 GND.t10 sky130_fd_pr__nfet_01v8 ad=0.42735 pd=2.92 as=1.0101 ps=5.96 w=2.59 l=4.93
X23 GND.t114 GND.t113 a_n2040_7754.t10 VDD.t121 sky130_fd_pr__pfet_01v8 ad=1.95 pd=10.78 as=1.95 ps=10.78 w=5 l=2.71
X24 VDD.t154 GND.t137 VOUT.t37 VDD.t100 sky130_fd_pr__pfet_01v8 ad=0.6138 pd=4.05 as=0.6138 ps=4.05 w=3.72 l=2.01
X25 VDD.t64 VDD.t62 VDD.t63 VDD.t17 sky130_fd_pr__pfet_01v8 ad=1.4508 pd=8.22 as=0 ps=0 w=3.72 l=2.01
X26 GND.t109 GND.t108 a_n2040_7754.t9 VDD.t102 sky130_fd_pr__pfet_01v8 ad=1.95 pd=10.78 as=1.95 ps=10.78 w=5 l=2.71
X27 VDD.t153 GND.t138 a_n5586_9514.t6 VDD.t152 sky130_fd_pr__pfet_01v8 ad=0.825 pd=5.33 as=0.825 ps=5.33 w=5 l=2.71
X28 GND.t112 GND.t110 GND.t111 GND.t96 sky130_fd_pr__nfet_01v8 ad=1.0101 pd=5.96 as=0 ps=0 w=2.59 l=4.93
X29 GND.t107 GND.t105 GND.t106 GND.t96 sky130_fd_pr__nfet_01v8 ad=1.0101 pd=5.96 as=0 ps=0 w=2.59 l=4.93
X30 GND.t104 GND.t102 VN.t2 GND.t103 sky130_fd_pr__nfet_01v8 ad=0.39 pd=2.78 as=0.165 ps=1.33 w=1 l=0.5
X31 DIFFPAIR_BIAS.t1 DIFFPAIR_BIAS.t0 a_n1945_n3383.t2 GND.t4 sky130_fd_pr__nfet_01v8 ad=2.3088 pd=12.62 as=2.3088 ps=12.62 w=5.92 l=2.02
X32 VP.t2 GND.t99 GND.t101 GND.t100 sky130_fd_pr__nfet_01v8 ad=0.165 pd=1.33 as=0.165 ps=1.33 w=1 l=0.5
X33 GND.t98 GND.t95 GND.t97 GND.t96 sky130_fd_pr__nfet_01v8 ad=1.0101 pd=5.96 as=0 ps=0 w=2.59 l=4.93
X34 VDD.t151 GND.t139 VOUT.t36 VDD.t90 sky130_fd_pr__pfet_01v8 ad=0.6138 pd=4.05 as=0.6138 ps=4.05 w=3.72 l=2.01
X35 VDD.t150 GND.t140 VOUT.t35 VDD.t94 sky130_fd_pr__pfet_01v8 ad=0.6138 pd=4.05 as=0.6138 ps=4.05 w=3.72 l=2.01
X36 VOUT.t34 GND.t141 VDD.t149 VDD.t82 sky130_fd_pr__pfet_01v8 ad=1.4508 pd=8.22 as=0.6138 ps=4.05 w=3.72 l=2.01
X37 GND.t13 VN.t3 a_n1816_n673.t1 GND.t12 sky130_fd_pr__nfet_01v8 ad=2.5233 pd=13.72 as=1.06755 ps=6.8 w=6.47 l=2.44
X38 VDD.t61 VDD.t59 VDD.t60 VDD.t10 sky130_fd_pr__pfet_01v8 ad=1.95 pd=10.78 as=0 ps=0 w=5 l=2.71
X39 a_n5586_9514.t5 GND.t142 VDD.t148 VDD.t147 sky130_fd_pr__pfet_01v8 ad=0.825 pd=5.33 as=0.825 ps=5.33 w=5 l=2.71
X40 GND.t94 GND.t92 GND.t93 GND.t55 sky130_fd_pr__nfet_01v8 ad=1.0101 pd=5.96 as=0 ps=0 w=2.59 l=4.93
X41 a_n6412_9514# a_n6412_9514# a_n6412_9514# VDD.t81 sky130_fd_pr__pfet_01v8 ad=1.95 pd=10.78 as=3.9 ps=21.56 w=5 l=2.71
X42 GND.t6 VP.t4 a_n1816_n673.t9 GND.t5 sky130_fd_pr__nfet_01v8 ad=2.5233 pd=13.72 as=1.06755 ps=6.8 w=6.47 l=2.44
X43 VDD.t58 VDD.t56 VDD.t57 VDD.t6 sky130_fd_pr__pfet_01v8 ad=1.4508 pd=8.22 as=0 ps=0 w=3.72 l=2.01
X44 VOUT.t33 GND.t143 VDD.t146 VDD.t82 sky130_fd_pr__pfet_01v8 ad=1.4508 pd=8.22 as=0.6138 ps=4.05 w=3.72 l=2.01
X45 VDD.t140 GND.t144 VOUT.t32 VDD.t90 sky130_fd_pr__pfet_01v8 ad=0.6138 pd=4.05 as=0.6138 ps=4.05 w=3.72 l=2.01
X46 GND.t91 GND.t89 GND.t90 GND.t77 sky130_fd_pr__nfet_01v8 ad=2.5233 pd=13.72 as=0 ps=0 w=6.47 l=2.44
X47 a_n5586_9514.t4 GND.t145 VDD.t145 VDD.t144 sky130_fd_pr__pfet_01v8 ad=1.95 pd=10.78 as=0.825 ps=5.33 w=5 l=2.71
X48 VOUT.t31 GND.t146 VDD.t143 VDD.t86 sky130_fd_pr__pfet_01v8 ad=0.6138 pd=4.05 as=1.4508 ps=8.22 w=3.72 l=2.01
X49 GND.t126 CS_BIAS.t11 VOUT.t46 GND.t20 sky130_fd_pr__nfet_01v8 ad=1.0101 pd=5.96 as=0.42735 ps=2.92 w=2.59 l=4.93
X50 GND.t24 CS_BIAS.t12 VOUT.t2 GND.t20 sky130_fd_pr__nfet_01v8 ad=1.0101 pd=5.96 as=0.42735 ps=2.92 w=2.59 l=4.93
X51 VOUT.t30 GND.t147 VDD.t142 VDD.t88 sky130_fd_pr__pfet_01v8 ad=0.6138 pd=4.05 as=0.6138 ps=4.05 w=3.72 l=2.01
X52 VOUT.t29 GND.t148 VDD.t141 VDD.t108 sky130_fd_pr__pfet_01v8 ad=0.6138 pd=4.05 as=1.4508 ps=8.22 w=3.72 l=2.01
X53 a_n2040_7754.t7 GND.t149 VDD.t139 VDD.t138 sky130_fd_pr__pfet_01v8 ad=1.95 pd=10.78 as=0.825 ps=5.33 w=5 l=2.71
X54 a_n5586_9514.t3 GND.t150 VDD.t137 VDD.t136 sky130_fd_pr__pfet_01v8 ad=1.95 pd=10.78 as=0.825 ps=5.33 w=5 l=2.71
X55 CS_BIAS.t5 CS_BIAS.t4 GND.t27 GND.t10 sky130_fd_pr__nfet_01v8 ad=0.42735 pd=2.92 as=1.0101 ps=5.96 w=2.59 l=4.93
X56 GND.t88 GND.t86 VN.t1 GND.t87 sky130_fd_pr__nfet_01v8 ad=0.165 pd=1.33 as=0.39 ps=2.78 w=1 l=0.5
X57 VOUT.t28 GND.t151 VDD.t135 VDD.t130 sky130_fd_pr__pfet_01v8 ad=0.6138 pd=4.05 as=0.6138 ps=4.05 w=3.72 l=2.01
X58 VOUT.t27 GND.t152 VDD.t134 VDD.t96 sky130_fd_pr__pfet_01v8 ad=1.4508 pd=8.22 as=0.6138 ps=4.05 w=3.72 l=2.01
X59 VDD.t55 VDD.t53 VDD.t54 VDD.t44 sky130_fd_pr__pfet_01v8 ad=1.95 pd=10.78 as=0 ps=0 w=5 l=2.71
X60 VDD.t133 GND.t153 a_n2040_7754.t6 VDD.t132 sky130_fd_pr__pfet_01v8 ad=0.825 pd=5.33 as=1.95 ps=10.78 w=5 l=2.71
X61 VOUT.t26 GND.t154 VDD.t131 VDD.t130 sky130_fd_pr__pfet_01v8 ad=0.6138 pd=4.05 as=0.6138 ps=4.05 w=3.72 l=2.01
X62 VDD.t129 GND.t155 VOUT.t25 VDD.t98 sky130_fd_pr__pfet_01v8 ad=0.6138 pd=4.05 as=0.6138 ps=4.05 w=3.72 l=2.01
X63 GND.t85 GND.t83 GND.t84 GND.t37 sky130_fd_pr__nfet_01v8 ad=1.0101 pd=5.96 as=0 ps=0 w=2.59 l=4.93
X64 VDD.t52 VDD.t50 VDD.t51 VDD.t17 sky130_fd_pr__pfet_01v8 ad=1.4508 pd=8.22 as=0 ps=0 w=3.72 l=2.01
X65 VDD.t128 GND.t156 a_n5586_9514.t2 VDD.t127 sky130_fd_pr__pfet_01v8 ad=0.825 pd=5.33 as=0.825 ps=5.33 w=5 l=2.71
X66 VDD.t49 VDD.t47 VDD.t48 VDD.t21 sky130_fd_pr__pfet_01v8 ad=1.4508 pd=8.22 as=0 ps=0 w=3.72 l=2.01
X67 GND.t25 VN.t4 a_n1816_n673.t4 GND.t0 sky130_fd_pr__nfet_01v8 ad=1.06755 pd=6.8 as=2.5233 ps=13.72 w=6.47 l=2.44
X68 VOUT.t24 GND.t157 VDD.t126 VDD.t96 sky130_fd_pr__pfet_01v8 ad=1.4508 pd=8.22 as=0.6138 ps=4.05 w=3.72 l=2.01
X69 VDD.t46 VDD.t43 VDD.t45 VDD.t44 sky130_fd_pr__pfet_01v8 ad=1.95 pd=10.78 as=0 ps=0 w=5 l=2.71
X70 VDD.t42 VDD.t40 VDD.t41 VDD.t21 sky130_fd_pr__pfet_01v8 ad=1.4508 pd=8.22 as=0 ps=0 w=3.72 l=2.01
X71 GND.t21 CS_BIAS.t2 CS_BIAS.t3 GND.t20 sky130_fd_pr__nfet_01v8 ad=1.0101 pd=5.96 as=0.42735 ps=2.92 w=2.59 l=4.93
X72 a_n1816_n673.t3 DIFFPAIR_BIAS.t6 a_n1279_n3383.t2 GND.t19 sky130_fd_pr__nfet_01v8 ad=2.3088 pd=12.62 as=2.3088 ps=12.62 w=5.92 l=2.02
X73 a_n1816_n673.t11 DIFFPAIR_BIAS.t7 a_n1279_n3383.t1 GND.t32 sky130_fd_pr__nfet_01v8 ad=2.3088 pd=12.62 as=2.3088 ps=12.62 w=5.92 l=2.02
X74 VOUT.t49 a_n2040_7754.t0 sky130_fd_pr__cap_mim_m3_1 l=8.2 w=5.36
X75 a_n1816_n673.t8 VP.t5 GND.t9 GND.t8 sky130_fd_pr__nfet_01v8 ad=1.06755 pd=6.8 as=1.06755 ps=6.8 w=6.47 l=2.44
X76 GND.t82 GND.t80 GND.t81 GND.t73 sky130_fd_pr__nfet_01v8 ad=1.0101 pd=5.96 as=0 ps=0 w=2.59 l=4.93
X77 VOUT.t23 GND.t158 VDD.t125 VDD.t88 sky130_fd_pr__pfet_01v8 ad=0.6138 pd=4.05 as=0.6138 ps=4.05 w=3.72 l=2.01
X78 GND.t28 VP.t6 a_n1816_n673.t7 GND.t16 sky130_fd_pr__nfet_01v8 ad=1.06755 pd=6.8 as=2.5233 ps=13.72 w=6.47 l=2.44
X79 VDD.t124 GND.t159 VOUT.t22 VDD.t98 sky130_fd_pr__pfet_01v8 ad=0.6138 pd=4.05 as=0.6138 ps=4.05 w=3.72 l=2.01
X80 VOUT.t50 a_n2040_7754.t0 sky130_fd_pr__cap_mim_m3_1 l=8.2 w=5.36
X81 VDD.t123 GND.t160 VOUT.t21 VDD.t94 sky130_fd_pr__pfet_01v8 ad=0.6138 pd=4.05 as=0.6138 ps=4.05 w=3.72 l=2.01
X82 VDD.t122 GND.t161 VOUT.t20 VDD.t90 sky130_fd_pr__pfet_01v8 ad=0.6138 pd=4.05 as=0.6138 ps=4.05 w=3.72 l=2.01
X83 GND.t26 CS_BIAS.t13 VOUT.t3 GND.t22 sky130_fd_pr__nfet_01v8 ad=1.0101 pd=5.96 as=0.42735 ps=2.92 w=2.59 l=4.93
X84 a_n5586_9514.t9 GND.t64 GND.t65 VDD.t121 sky130_fd_pr__pfet_01v8 ad=1.95 pd=10.78 as=1.95 ps=10.78 w=5 l=2.71
X85 VDD.t120 GND.t162 a_n2040_7754.t5 VDD.t119 sky130_fd_pr__pfet_01v8 ad=0.825 pd=5.33 as=0.825 ps=5.33 w=5 l=2.71
X86 VDD.t118 GND.t163 a_n2040_7754.t4 VDD.t117 sky130_fd_pr__pfet_01v8 ad=0.825 pd=5.33 as=0.825 ps=5.33 w=5 l=2.71
X87 VDD.t116 GND.t164 VOUT.t19 VDD.t94 sky130_fd_pr__pfet_01v8 ad=0.6138 pd=4.05 as=0.6138 ps=4.05 w=3.72 l=2.01
X88 VOUT.t18 GND.t165 VDD.t115 VDD.t88 sky130_fd_pr__pfet_01v8 ad=0.6138 pd=4.05 as=0.6138 ps=4.05 w=3.72 l=2.01
X89 VOUT.t17 GND.t166 VDD.t114 VDD.t86 sky130_fd_pr__pfet_01v8 ad=0.6138 pd=4.05 as=1.4508 ps=8.22 w=3.72 l=2.01
X90 VDD.t39 VDD.t37 VDD.t38 VDD.t25 sky130_fd_pr__pfet_01v8 ad=1.4508 pd=8.22 as=0 ps=0 w=3.72 l=2.01
X91 VDD.t36 VDD.t34 VDD.t35 VDD.t6 sky130_fd_pr__pfet_01v8 ad=1.4508 pd=8.22 as=0 ps=0 w=3.72 l=2.01
X92 GND.t79 GND.t76 GND.t78 GND.t77 sky130_fd_pr__nfet_01v8 ad=2.5233 pd=13.72 as=0 ps=0 w=6.47 l=2.44
X93 GND.t75 GND.t72 GND.t74 GND.t73 sky130_fd_pr__nfet_01v8 ad=1.0101 pd=5.96 as=0 ps=0 w=2.59 l=4.93
X94 VDD.t33 VDD.t31 VDD.t32 VDD.t6 sky130_fd_pr__pfet_01v8 ad=1.4508 pd=8.22 as=0 ps=0 w=3.72 l=2.01
X95 GND.t71 GND.t69 VP.t1 GND.t70 sky130_fd_pr__nfet_01v8 ad=0.165 pd=1.33 as=0.39 ps=2.78 w=1 l=0.5
X96 VOUT.t16 GND.t167 VDD.t113 VDD.t96 sky130_fd_pr__pfet_01v8 ad=1.4508 pd=8.22 as=0.6138 ps=4.05 w=3.72 l=2.01
X97 GND.t68 GND.t66 GND.t67 GND.t55 sky130_fd_pr__nfet_01v8 ad=1.0101 pd=5.96 as=0 ps=0 w=2.59 l=4.93
X98 VOUT.t51 a_n2040_7754.t0 sky130_fd_pr__cap_mim_m3_1 l=8.2 w=5.36
X99 VOUT.t52 a_n2040_7754.t0 sky130_fd_pr__cap_mim_m3_1 l=8.2 w=5.36
X100 a_n2040_7754.t3 GND.t168 VDD.t112 VDD.t111 sky130_fd_pr__pfet_01v8 ad=1.95 pd=10.78 as=0.825 ps=5.33 w=5 l=2.71
X101 DIFFPAIR_BIAS.t5 DIFFPAIR_BIAS.t4 a_n1945_n3383.t1 GND.t2 sky130_fd_pr__nfet_01v8 ad=2.3088 pd=12.62 as=2.3088 ps=12.62 w=5.92 l=2.02
X102 DIFFPAIR_BIAS.t3 DIFFPAIR_BIAS.t2 a_n1945_n3383.t0 GND.t3 sky130_fd_pr__nfet_01v8 ad=2.3088 pd=12.62 as=2.3088 ps=12.62 w=5.92 l=2.02
X103 a_n1816_n673.t13 VN.t5 GND.t35 GND.t14 sky130_fd_pr__nfet_01v8 ad=1.06755 pd=6.8 as=1.06755 ps=6.8 w=6.47 l=2.44
X104 VDD.t30 VDD.t28 VDD.t29 VDD.t17 sky130_fd_pr__pfet_01v8 ad=1.4508 pd=8.22 as=0 ps=0 w=3.72 l=2.01
X105 VOUT.t15 GND.t169 VDD.t109 VDD.t108 sky130_fd_pr__pfet_01v8 ad=0.6138 pd=4.05 as=1.4508 ps=8.22 w=3.72 l=2.01
X106 GND.t63 GND.t60 GND.t62 GND.t61 sky130_fd_pr__nfet_01v8 ad=2.5233 pd=13.72 as=0 ps=0 w=6.47 l=2.44
X107 VDD.t110 GND.t170 VOUT.t14 VDD.t100 sky130_fd_pr__pfet_01v8 ad=0.6138 pd=4.05 as=0.6138 ps=4.05 w=3.72 l=2.01
X108 VDD.t107 GND.t171 VOUT.t13 VDD.t98 sky130_fd_pr__pfet_01v8 ad=0.6138 pd=4.05 as=0.6138 ps=4.05 w=3.72 l=2.01
X109 VDD.t27 VDD.t24 VDD.t26 VDD.t25 sky130_fd_pr__pfet_01v8 ad=1.4508 pd=8.22 as=0 ps=0 w=3.72 l=2.01
X110 VDD.t106 GND.t172 a_n5586_9514.t1 VDD.t105 sky130_fd_pr__pfet_01v8 ad=0.825 pd=5.33 as=1.95 ps=10.78 w=5 l=2.71
X111 a_n2040_7754.t2 GND.t173 VDD.t104 VDD.t103 sky130_fd_pr__pfet_01v8 ad=0.825 pd=5.33 as=0.825 ps=5.33 w=5 l=2.71
X112 GND.t124 CS_BIAS.t14 VOUT.t45 GND.t22 sky130_fd_pr__nfet_01v8 ad=1.0101 pd=5.96 as=0.42735 ps=2.92 w=2.59 l=4.93
X113 GND.t1 VP.t7 a_n1816_n673.t6 GND.t0 sky130_fd_pr__nfet_01v8 ad=1.06755 pd=6.8 as=2.5233 ps=13.72 w=6.47 l=2.44
X114 VDD.t23 VDD.t20 VDD.t22 VDD.t21 sky130_fd_pr__pfet_01v8 ad=1.4508 pd=8.22 as=0 ps=0 w=3.72 l=2.01
X115 VDD.t19 VDD.t16 VDD.t18 VDD.t17 sky130_fd_pr__pfet_01v8 ad=1.4508 pd=8.22 as=0 ps=0 w=3.72 l=2.01
X116 GND.t57 GND.t54 GND.t56 GND.t55 sky130_fd_pr__nfet_01v8 ad=1.0101 pd=5.96 as=0 ps=0 w=2.59 l=4.93
X117 a_n5586_9514.t8 GND.t58 GND.t59 VDD.t102 sky130_fd_pr__pfet_01v8 ad=1.95 pd=10.78 as=1.95 ps=10.78 w=5 l=2.71
X118 GND.t53 GND.t50 GND.t52 GND.t51 sky130_fd_pr__nfet_01v8 ad=2.3088 pd=12.62 as=0 ps=0 w=5.92 l=2.02
X119 VN.t0 GND.t47 GND.t49 GND.t48 sky130_fd_pr__nfet_01v8 ad=0.165 pd=1.33 as=0.165 ps=1.33 w=1 l=0.5
X120 a_n1816_n673.t0 DIFFPAIR_BIAS.t8 a_n1279_n3383.t0 GND.t7 sky130_fd_pr__nfet_01v8 ad=2.3088 pd=12.62 as=2.3088 ps=12.62 w=5.92 l=2.02
X121 GND.t46 GND.t44 VP.t0 GND.t45 sky130_fd_pr__nfet_01v8 ad=0.39 pd=2.78 as=0.165 ps=1.33 w=1 l=0.5
X122 VDD.t101 GND.t174 VOUT.t12 VDD.t100 sky130_fd_pr__pfet_01v8 ad=0.6138 pd=4.05 as=0.6138 ps=4.05 w=3.72 l=2.01
X123 VDD.t99 GND.t175 VOUT.t11 VDD.t98 sky130_fd_pr__pfet_01v8 ad=0.6138 pd=4.05 as=0.6138 ps=4.05 w=3.72 l=2.01
X124 VOUT.t4 CS_BIAS.t15 GND.t30 GND.t29 sky130_fd_pr__nfet_01v8 ad=0.42735 pd=2.92 as=1.0101 ps=5.96 w=2.59 l=4.93
X125 VOUT.t10 GND.t176 VDD.t97 VDD.t96 sky130_fd_pr__pfet_01v8 ad=1.4508 pd=8.22 as=0.6138 ps=4.05 w=3.72 l=2.01
X126 VDD.t95 GND.t177 VOUT.t9 VDD.t94 sky130_fd_pr__pfet_01v8 ad=0.6138 pd=4.05 as=0.6138 ps=4.05 w=3.72 l=2.01
X127 VDD.t15 VDD.t13 VDD.t14 VDD.t2 sky130_fd_pr__pfet_01v8 ad=1.95 pd=10.78 as=0 ps=0 w=5 l=2.71
X128 a_n1816_n673.t14 VN.t6 GND.t125 GND.t8 sky130_fd_pr__nfet_01v8 ad=1.06755 pd=6.8 as=1.06755 ps=6.8 w=6.47 l=2.44
X129 a_n2040_7754.t1 GND.t178 VDD.t93 VDD.t92 sky130_fd_pr__pfet_01v8 ad=0.825 pd=5.33 as=0.825 ps=5.33 w=5 l=2.71
X130 GND.t23 CS_BIAS.t0 CS_BIAS.t1 GND.t22 sky130_fd_pr__nfet_01v8 ad=1.0101 pd=5.96 as=0.42735 ps=2.92 w=2.59 l=4.93
X131 GND.t17 VN.t7 a_n1816_n673.t2 GND.t16 sky130_fd_pr__nfet_01v8 ad=1.06755 pd=6.8 as=2.5233 ps=13.72 w=6.47 l=2.44
X132 a_5714_9514# a_5714_9514# a_5714_9514# VDD.t0 sky130_fd_pr__pfet_01v8 ad=1.95 pd=10.78 as=3.9 ps=21.56 w=5 l=2.71
X133 VDD.t91 GND.t179 VOUT.t8 VDD.t90 sky130_fd_pr__pfet_01v8 ad=0.6138 pd=4.05 as=0.6138 ps=4.05 w=3.72 l=2.01
X134 VOUT.t7 GND.t180 VDD.t89 VDD.t88 sky130_fd_pr__pfet_01v8 ad=0.6138 pd=4.05 as=0.6138 ps=4.05 w=3.72 l=2.01
X135 VDD.t12 VDD.t9 VDD.t11 VDD.t10 sky130_fd_pr__pfet_01v8 ad=1.95 pd=10.78 as=0 ps=0 w=5 l=2.71
X136 GND.t43 GND.t40 GND.t42 GND.t41 sky130_fd_pr__nfet_01v8 ad=2.3088 pd=12.62 as=0 ps=0 w=5.92 l=2.02
X137 GND.t39 GND.t36 GND.t38 GND.t37 sky130_fd_pr__nfet_01v8 ad=1.0101 pd=5.96 as=0 ps=0 w=2.59 l=4.93
X138 VOUT.t6 GND.t181 VDD.t87 VDD.t86 sky130_fd_pr__pfet_01v8 ad=0.6138 pd=4.05 as=1.4508 ps=8.22 w=3.72 l=2.01
X139 a_n5586_9514.t0 GND.t182 VDD.t85 VDD.t84 sky130_fd_pr__pfet_01v8 ad=0.825 pd=5.33 as=0.825 ps=5.33 w=5 l=2.71
X140 VOUT.t5 GND.t183 VDD.t83 VDD.t82 sky130_fd_pr__pfet_01v8 ad=1.4508 pd=8.22 as=0.6138 ps=4.05 w=3.72 l=2.01
X141 GND.t33 VP.t8 a_n1816_n673.t5 GND.t12 sky130_fd_pr__nfet_01v8 ad=2.5233 pd=13.72 as=1.06755 ps=6.8 w=6.47 l=2.44
X142 VDD.t8 VDD.t5 VDD.t7 VDD.t6 sky130_fd_pr__pfet_01v8 ad=1.4508 pd=8.22 as=0 ps=0 w=3.72 l=2.01
X143 VDD.t4 VDD.t1 VDD.t3 VDD.t2 sky130_fd_pr__pfet_01v8 ad=1.95 pd=10.78 as=0 ps=0 w=5 l=2.71
X144 VOUT.t53 a_n2040_7754.t0 sky130_fd_pr__cap_mim_m3_1 l=8.2 w=5.36
X145 GND.t34 VN.t8 a_n1816_n673.t12 GND.t5 sky130_fd_pr__nfet_01v8 ad=2.5233 pd=13.72 as=1.06755 ps=6.8 w=6.47 l=2.44
R0 GND.n5542 GND.n453 2347.19
R1 GND.n4866 GND.n904 924.168
R2 GND.n4973 GND.n799 826.439
R3 GND.n5543 GND.n454 826.439
R4 GND.n5685 GND.n374 826.439
R5 GND.n4859 GND.n905 826.439
R6 GND.n273 GND.n261 821.635
R7 GND.n4242 GND.n309 821.635
R8 GND.n4426 GND.n2381 821.635
R9 GND.n4388 GND.n2802 821.635
R10 GND.n4799 GND.n981 821.635
R11 GND.n4781 GND.n4780 821.635
R12 GND.n1206 GND.n1174 821.635
R13 GND.n4652 GND.n1171 821.635
R14 GND.n5791 GND.n266 807.22
R15 GND.n5749 GND.n308 807.22
R16 GND.n4391 GND.n4390 807.22
R17 GND.n4423 GND.n2398 807.22
R18 GND.n4699 GND.n1176 807.22
R19 GND.n4701 GND.n1169 807.22
R20 GND.n995 GND.n975 807.22
R21 GND.n4778 GND.n997 807.22
R22 GND.n4972 GND.n4971 804.557
R23 GND.n3880 GND.n2371 706.317
R24 GND.n3889 GND.n3091 706.317
R25 GND.n3281 GND.n3280 706.317
R26 GND.n3276 GND.n2073 706.317
R27 GND.n802 GND.n799 585
R28 GND.n4971 GND.n799 585
R29 GND.n4969 GND.n4968 585
R30 GND.n4970 GND.n4969 585
R31 GND.n4967 GND.n801 585
R32 GND.n801 GND.n800 585
R33 GND.n4966 GND.n4965 585
R34 GND.n4965 GND.n4964 585
R35 GND.n807 GND.n806 585
R36 GND.n4963 GND.n807 585
R37 GND.n4961 GND.n4960 585
R38 GND.n4962 GND.n4961 585
R39 GND.n4959 GND.n809 585
R40 GND.n809 GND.n808 585
R41 GND.n4958 GND.n4957 585
R42 GND.n4957 GND.n4956 585
R43 GND.n815 GND.n814 585
R44 GND.n4955 GND.n815 585
R45 GND.n4953 GND.n4952 585
R46 GND.n4954 GND.n4953 585
R47 GND.n4951 GND.n817 585
R48 GND.n817 GND.n816 585
R49 GND.n4950 GND.n4949 585
R50 GND.n4949 GND.n4948 585
R51 GND.n823 GND.n822 585
R52 GND.n4947 GND.n823 585
R53 GND.n4945 GND.n4944 585
R54 GND.n4946 GND.n4945 585
R55 GND.n4943 GND.n825 585
R56 GND.n825 GND.n824 585
R57 GND.n4942 GND.n4941 585
R58 GND.n4941 GND.n4940 585
R59 GND.n831 GND.n830 585
R60 GND.n4939 GND.n831 585
R61 GND.n4937 GND.n4936 585
R62 GND.n4938 GND.n4937 585
R63 GND.n4935 GND.n833 585
R64 GND.n833 GND.n832 585
R65 GND.n4934 GND.n4933 585
R66 GND.n4933 GND.n4932 585
R67 GND.n839 GND.n838 585
R68 GND.n4931 GND.n839 585
R69 GND.n4929 GND.n4928 585
R70 GND.n4930 GND.n4929 585
R71 GND.n4927 GND.n841 585
R72 GND.n841 GND.n840 585
R73 GND.n4926 GND.n4925 585
R74 GND.n4925 GND.n4924 585
R75 GND.n847 GND.n846 585
R76 GND.n4923 GND.n847 585
R77 GND.n4921 GND.n4920 585
R78 GND.n4922 GND.n4921 585
R79 GND.n4919 GND.n849 585
R80 GND.n849 GND.n848 585
R81 GND.n4918 GND.n4917 585
R82 GND.n4917 GND.n4916 585
R83 GND.n855 GND.n854 585
R84 GND.n4915 GND.n855 585
R85 GND.n4913 GND.n4912 585
R86 GND.n4914 GND.n4913 585
R87 GND.n4911 GND.n857 585
R88 GND.n857 GND.n856 585
R89 GND.n4910 GND.n4909 585
R90 GND.n4909 GND.n4908 585
R91 GND.n863 GND.n862 585
R92 GND.n4907 GND.n863 585
R93 GND.n4905 GND.n4904 585
R94 GND.n4906 GND.n4905 585
R95 GND.n4903 GND.n865 585
R96 GND.n865 GND.n864 585
R97 GND.n4902 GND.n4901 585
R98 GND.n4901 GND.n4900 585
R99 GND.n871 GND.n870 585
R100 GND.n4899 GND.n871 585
R101 GND.n4897 GND.n4896 585
R102 GND.n4898 GND.n4897 585
R103 GND.n4895 GND.n873 585
R104 GND.n873 GND.n872 585
R105 GND.n4894 GND.n4893 585
R106 GND.n4893 GND.n4892 585
R107 GND.n879 GND.n878 585
R108 GND.n4891 GND.n879 585
R109 GND.n4889 GND.n4888 585
R110 GND.n4890 GND.n4889 585
R111 GND.n4887 GND.n881 585
R112 GND.n881 GND.n880 585
R113 GND.n4886 GND.n4885 585
R114 GND.n4885 GND.n4884 585
R115 GND.n887 GND.n886 585
R116 GND.n4883 GND.n887 585
R117 GND.n4881 GND.n4880 585
R118 GND.n4882 GND.n4881 585
R119 GND.n4879 GND.n889 585
R120 GND.n889 GND.n888 585
R121 GND.n4878 GND.n4877 585
R122 GND.n4877 GND.n4876 585
R123 GND.n895 GND.n894 585
R124 GND.n4875 GND.n895 585
R125 GND.n4873 GND.n4872 585
R126 GND.n4874 GND.n4873 585
R127 GND.n4871 GND.n897 585
R128 GND.n897 GND.n896 585
R129 GND.n4870 GND.n4869 585
R130 GND.n4869 GND.n4868 585
R131 GND.n903 GND.n902 585
R132 GND.n4867 GND.n903 585
R133 GND.n4865 GND.n4864 585
R134 GND.n4866 GND.n4865 585
R135 GND.n4974 GND.n4973 585
R136 GND.n4973 GND.n4972 585
R137 GND.n797 GND.n796 585
R138 GND.n796 GND.n795 585
R139 GND.n4979 GND.n4978 585
R140 GND.n4980 GND.n4979 585
R141 GND.n794 GND.n793 585
R142 GND.n4981 GND.n794 585
R143 GND.n4984 GND.n4983 585
R144 GND.n4983 GND.n4982 585
R145 GND.n791 GND.n790 585
R146 GND.n790 GND.n789 585
R147 GND.n4989 GND.n4988 585
R148 GND.n4990 GND.n4989 585
R149 GND.n788 GND.n787 585
R150 GND.n4991 GND.n788 585
R151 GND.n4994 GND.n4993 585
R152 GND.n4993 GND.n4992 585
R153 GND.n785 GND.n784 585
R154 GND.n784 GND.n783 585
R155 GND.n4999 GND.n4998 585
R156 GND.n5000 GND.n4999 585
R157 GND.n782 GND.n781 585
R158 GND.n5001 GND.n782 585
R159 GND.n5004 GND.n5003 585
R160 GND.n5003 GND.n5002 585
R161 GND.n779 GND.n778 585
R162 GND.n778 GND.n777 585
R163 GND.n5009 GND.n5008 585
R164 GND.n5010 GND.n5009 585
R165 GND.n776 GND.n775 585
R166 GND.n5011 GND.n776 585
R167 GND.n5014 GND.n5013 585
R168 GND.n5013 GND.n5012 585
R169 GND.n773 GND.n772 585
R170 GND.n772 GND.n771 585
R171 GND.n5019 GND.n5018 585
R172 GND.n5020 GND.n5019 585
R173 GND.n770 GND.n769 585
R174 GND.n5021 GND.n770 585
R175 GND.n5024 GND.n5023 585
R176 GND.n5023 GND.n5022 585
R177 GND.n767 GND.n766 585
R178 GND.n766 GND.n765 585
R179 GND.n5029 GND.n5028 585
R180 GND.n5030 GND.n5029 585
R181 GND.n764 GND.n763 585
R182 GND.n5031 GND.n764 585
R183 GND.n5034 GND.n5033 585
R184 GND.n5033 GND.n5032 585
R185 GND.n761 GND.n760 585
R186 GND.n760 GND.n759 585
R187 GND.n5039 GND.n5038 585
R188 GND.n5040 GND.n5039 585
R189 GND.n758 GND.n757 585
R190 GND.n5041 GND.n758 585
R191 GND.n5044 GND.n5043 585
R192 GND.n5043 GND.n5042 585
R193 GND.n755 GND.n754 585
R194 GND.n754 GND.n753 585
R195 GND.n5049 GND.n5048 585
R196 GND.n5050 GND.n5049 585
R197 GND.n752 GND.n751 585
R198 GND.n5051 GND.n752 585
R199 GND.n5054 GND.n5053 585
R200 GND.n5053 GND.n5052 585
R201 GND.n749 GND.n748 585
R202 GND.n748 GND.n747 585
R203 GND.n5059 GND.n5058 585
R204 GND.n5060 GND.n5059 585
R205 GND.n746 GND.n745 585
R206 GND.n5061 GND.n746 585
R207 GND.n5064 GND.n5063 585
R208 GND.n5063 GND.n5062 585
R209 GND.n743 GND.n742 585
R210 GND.n742 GND.n741 585
R211 GND.n5069 GND.n5068 585
R212 GND.n5070 GND.n5069 585
R213 GND.n740 GND.n739 585
R214 GND.n5071 GND.n740 585
R215 GND.n5074 GND.n5073 585
R216 GND.n5073 GND.n5072 585
R217 GND.n737 GND.n736 585
R218 GND.n736 GND.n735 585
R219 GND.n5079 GND.n5078 585
R220 GND.n5080 GND.n5079 585
R221 GND.n734 GND.n733 585
R222 GND.n5081 GND.n734 585
R223 GND.n5084 GND.n5083 585
R224 GND.n5083 GND.n5082 585
R225 GND.n731 GND.n730 585
R226 GND.n730 GND.n729 585
R227 GND.n5089 GND.n5088 585
R228 GND.n5090 GND.n5089 585
R229 GND.n728 GND.n727 585
R230 GND.n5091 GND.n728 585
R231 GND.n5094 GND.n5093 585
R232 GND.n5093 GND.n5092 585
R233 GND.n725 GND.n724 585
R234 GND.n724 GND.n723 585
R235 GND.n5099 GND.n5098 585
R236 GND.n5100 GND.n5099 585
R237 GND.n722 GND.n721 585
R238 GND.n5101 GND.n722 585
R239 GND.n5104 GND.n5103 585
R240 GND.n5103 GND.n5102 585
R241 GND.n719 GND.n718 585
R242 GND.n718 GND.n717 585
R243 GND.n5109 GND.n5108 585
R244 GND.n5110 GND.n5109 585
R245 GND.n716 GND.n715 585
R246 GND.n5111 GND.n716 585
R247 GND.n5114 GND.n5113 585
R248 GND.n5113 GND.n5112 585
R249 GND.n713 GND.n712 585
R250 GND.n712 GND.n711 585
R251 GND.n5119 GND.n5118 585
R252 GND.n5120 GND.n5119 585
R253 GND.n710 GND.n709 585
R254 GND.n5121 GND.n710 585
R255 GND.n5124 GND.n5123 585
R256 GND.n5123 GND.n5122 585
R257 GND.n707 GND.n706 585
R258 GND.n706 GND.n705 585
R259 GND.n5129 GND.n5128 585
R260 GND.n5130 GND.n5129 585
R261 GND.n704 GND.n703 585
R262 GND.n5131 GND.n704 585
R263 GND.n5134 GND.n5133 585
R264 GND.n5133 GND.n5132 585
R265 GND.n701 GND.n700 585
R266 GND.n700 GND.n699 585
R267 GND.n5139 GND.n5138 585
R268 GND.n5140 GND.n5139 585
R269 GND.n698 GND.n697 585
R270 GND.n5141 GND.n698 585
R271 GND.n5144 GND.n5143 585
R272 GND.n5143 GND.n5142 585
R273 GND.n695 GND.n694 585
R274 GND.n694 GND.n693 585
R275 GND.n5149 GND.n5148 585
R276 GND.n5150 GND.n5149 585
R277 GND.n692 GND.n691 585
R278 GND.n5151 GND.n692 585
R279 GND.n5154 GND.n5153 585
R280 GND.n5153 GND.n5152 585
R281 GND.n689 GND.n688 585
R282 GND.n688 GND.n687 585
R283 GND.n5159 GND.n5158 585
R284 GND.n5160 GND.n5159 585
R285 GND.n686 GND.n685 585
R286 GND.n5161 GND.n686 585
R287 GND.n5164 GND.n5163 585
R288 GND.n5163 GND.n5162 585
R289 GND.n683 GND.n682 585
R290 GND.n682 GND.n681 585
R291 GND.n5169 GND.n5168 585
R292 GND.n5170 GND.n5169 585
R293 GND.n680 GND.n679 585
R294 GND.n5171 GND.n680 585
R295 GND.n5174 GND.n5173 585
R296 GND.n5173 GND.n5172 585
R297 GND.n677 GND.n676 585
R298 GND.n676 GND.n675 585
R299 GND.n5179 GND.n5178 585
R300 GND.n5180 GND.n5179 585
R301 GND.n674 GND.n673 585
R302 GND.n5181 GND.n674 585
R303 GND.n5184 GND.n5183 585
R304 GND.n5183 GND.n5182 585
R305 GND.n671 GND.n670 585
R306 GND.n670 GND.n669 585
R307 GND.n5189 GND.n5188 585
R308 GND.n5190 GND.n5189 585
R309 GND.n668 GND.n667 585
R310 GND.n5191 GND.n668 585
R311 GND.n5194 GND.n5193 585
R312 GND.n5193 GND.n5192 585
R313 GND.n665 GND.n664 585
R314 GND.n664 GND.n663 585
R315 GND.n5199 GND.n5198 585
R316 GND.n5200 GND.n5199 585
R317 GND.n662 GND.n661 585
R318 GND.n5201 GND.n662 585
R319 GND.n5204 GND.n5203 585
R320 GND.n5203 GND.n5202 585
R321 GND.n659 GND.n658 585
R322 GND.n658 GND.n657 585
R323 GND.n5209 GND.n5208 585
R324 GND.n5210 GND.n5209 585
R325 GND.n656 GND.n655 585
R326 GND.n5211 GND.n656 585
R327 GND.n5214 GND.n5213 585
R328 GND.n5213 GND.n5212 585
R329 GND.n653 GND.n652 585
R330 GND.n652 GND.n651 585
R331 GND.n5219 GND.n5218 585
R332 GND.n5220 GND.n5219 585
R333 GND.n650 GND.n649 585
R334 GND.n5221 GND.n650 585
R335 GND.n5224 GND.n5223 585
R336 GND.n5223 GND.n5222 585
R337 GND.n647 GND.n646 585
R338 GND.n646 GND.n645 585
R339 GND.n5229 GND.n5228 585
R340 GND.n5230 GND.n5229 585
R341 GND.n644 GND.n643 585
R342 GND.n5231 GND.n644 585
R343 GND.n5234 GND.n5233 585
R344 GND.n5233 GND.n5232 585
R345 GND.n641 GND.n640 585
R346 GND.n640 GND.n639 585
R347 GND.n5239 GND.n5238 585
R348 GND.n5240 GND.n5239 585
R349 GND.n638 GND.n637 585
R350 GND.n5241 GND.n638 585
R351 GND.n5244 GND.n5243 585
R352 GND.n5243 GND.n5242 585
R353 GND.n635 GND.n634 585
R354 GND.n634 GND.n633 585
R355 GND.n5249 GND.n5248 585
R356 GND.n5250 GND.n5249 585
R357 GND.n632 GND.n631 585
R358 GND.n5251 GND.n632 585
R359 GND.n5254 GND.n5253 585
R360 GND.n5253 GND.n5252 585
R361 GND.n629 GND.n628 585
R362 GND.n628 GND.n627 585
R363 GND.n5259 GND.n5258 585
R364 GND.n5260 GND.n5259 585
R365 GND.n626 GND.n625 585
R366 GND.n5261 GND.n626 585
R367 GND.n5264 GND.n5263 585
R368 GND.n5263 GND.n5262 585
R369 GND.n623 GND.n622 585
R370 GND.n622 GND.n621 585
R371 GND.n5269 GND.n5268 585
R372 GND.n5270 GND.n5269 585
R373 GND.n620 GND.n619 585
R374 GND.n5271 GND.n620 585
R375 GND.n5274 GND.n5273 585
R376 GND.n5273 GND.n5272 585
R377 GND.n617 GND.n616 585
R378 GND.n616 GND.n615 585
R379 GND.n5279 GND.n5278 585
R380 GND.n5280 GND.n5279 585
R381 GND.n614 GND.n613 585
R382 GND.n5281 GND.n614 585
R383 GND.n5284 GND.n5283 585
R384 GND.n5283 GND.n5282 585
R385 GND.n611 GND.n610 585
R386 GND.n610 GND.n609 585
R387 GND.n5289 GND.n5288 585
R388 GND.n5290 GND.n5289 585
R389 GND.n608 GND.n607 585
R390 GND.n5291 GND.n608 585
R391 GND.n5294 GND.n5293 585
R392 GND.n5293 GND.n5292 585
R393 GND.n605 GND.n604 585
R394 GND.n604 GND.n603 585
R395 GND.n5299 GND.n5298 585
R396 GND.n5300 GND.n5299 585
R397 GND.n602 GND.n601 585
R398 GND.n5301 GND.n602 585
R399 GND.n5304 GND.n5303 585
R400 GND.n5303 GND.n5302 585
R401 GND.n599 GND.n598 585
R402 GND.n598 GND.n597 585
R403 GND.n5309 GND.n5308 585
R404 GND.n5310 GND.n5309 585
R405 GND.n596 GND.n595 585
R406 GND.n5311 GND.n596 585
R407 GND.n5314 GND.n5313 585
R408 GND.n5313 GND.n5312 585
R409 GND.n593 GND.n592 585
R410 GND.n592 GND.n591 585
R411 GND.n5319 GND.n5318 585
R412 GND.n5320 GND.n5319 585
R413 GND.n590 GND.n589 585
R414 GND.n5321 GND.n590 585
R415 GND.n5324 GND.n5323 585
R416 GND.n5323 GND.n5322 585
R417 GND.n587 GND.n586 585
R418 GND.n586 GND.n585 585
R419 GND.n5329 GND.n5328 585
R420 GND.n5330 GND.n5329 585
R421 GND.n584 GND.n583 585
R422 GND.n5331 GND.n584 585
R423 GND.n5334 GND.n5333 585
R424 GND.n5333 GND.n5332 585
R425 GND.n581 GND.n580 585
R426 GND.n580 GND.n579 585
R427 GND.n5339 GND.n5338 585
R428 GND.n5340 GND.n5339 585
R429 GND.n578 GND.n577 585
R430 GND.n5341 GND.n578 585
R431 GND.n5344 GND.n5343 585
R432 GND.n5343 GND.n5342 585
R433 GND.n575 GND.n574 585
R434 GND.n574 GND.n573 585
R435 GND.n5349 GND.n5348 585
R436 GND.n5350 GND.n5349 585
R437 GND.n572 GND.n571 585
R438 GND.n5351 GND.n572 585
R439 GND.n5354 GND.n5353 585
R440 GND.n5353 GND.n5352 585
R441 GND.n569 GND.n568 585
R442 GND.n568 GND.n567 585
R443 GND.n5359 GND.n5358 585
R444 GND.n5360 GND.n5359 585
R445 GND.n566 GND.n565 585
R446 GND.n5361 GND.n566 585
R447 GND.n5364 GND.n5363 585
R448 GND.n5363 GND.n5362 585
R449 GND.n563 GND.n562 585
R450 GND.n562 GND.n561 585
R451 GND.n5369 GND.n5368 585
R452 GND.n5370 GND.n5369 585
R453 GND.n560 GND.n559 585
R454 GND.n5371 GND.n560 585
R455 GND.n5374 GND.n5373 585
R456 GND.n5373 GND.n5372 585
R457 GND.n557 GND.n556 585
R458 GND.n556 GND.n555 585
R459 GND.n5379 GND.n5378 585
R460 GND.n5380 GND.n5379 585
R461 GND.n554 GND.n553 585
R462 GND.n5381 GND.n554 585
R463 GND.n5384 GND.n5383 585
R464 GND.n5383 GND.n5382 585
R465 GND.n551 GND.n550 585
R466 GND.n550 GND.n549 585
R467 GND.n5389 GND.n5388 585
R468 GND.n5390 GND.n5389 585
R469 GND.n548 GND.n547 585
R470 GND.n5391 GND.n548 585
R471 GND.n5394 GND.n5393 585
R472 GND.n5393 GND.n5392 585
R473 GND.n545 GND.n544 585
R474 GND.n544 GND.n543 585
R475 GND.n5399 GND.n5398 585
R476 GND.n5400 GND.n5399 585
R477 GND.n542 GND.n541 585
R478 GND.n5401 GND.n542 585
R479 GND.n5404 GND.n5403 585
R480 GND.n5403 GND.n5402 585
R481 GND.n539 GND.n538 585
R482 GND.n538 GND.n537 585
R483 GND.n5409 GND.n5408 585
R484 GND.n5410 GND.n5409 585
R485 GND.n536 GND.n535 585
R486 GND.n5411 GND.n536 585
R487 GND.n5414 GND.n5413 585
R488 GND.n5413 GND.n5412 585
R489 GND.n533 GND.n532 585
R490 GND.n532 GND.n531 585