* NGSPICE file created from opamp_sample_0006.ext - technology: sky130A

.subckt opamp_sample_0006 GND VOUT VDD VN VP CS_BIAS DIFFPAIR_BIAS
X0 a_n10683_10810.t5 a_n10683_10810.t4 a_n10827_11007.t10 VDD.t123 sky130_fd_pr__pfet_01v8 ad=0.9603 pd=3.57 as=0.9603 ps=3.57 w=2.91 l=5.29
X1 a_n10827_11007.t9 a_n10683_10810.t18 a_n10683_10810.t19 VDD.t141 sky130_fd_pr__pfet_01v8 ad=0.9603 pd=3.57 as=0.9603 ps=3.57 w=2.91 l=5.29
X2 GND.t23 CS_BIAS.t8 VOUT.t7 GND.t0 sky130_fd_pr__nfet_01v8 ad=2.1384 pd=7.38 as=0.9801 ps=3.63 w=2.97 l=5.77
X3 a_n17822_7210.t3 VN.t7 a_n2596_242.t4 GND.t24 sky130_fd_pr__nfet_01v8 ad=0.7524 pd=2.94 as=1.6416 ps=6 w=2.28 l=5.28
X4 VDD.t120 VDD.t118 VDD.t119 VDD.t69 sky130_fd_pr__pfet_01v8 ad=2.0952 pd=7.26 as=0 ps=0 w=2.91 l=5.29
X5 VDD.t117 VDD.t115 VDD.t116 VDD.t82 sky130_fd_pr__pfet_01v8 ad=2.0952 pd=7.26 as=0 ps=0 w=2.91 l=5.29
X6 VOUT.t34 a_n17822_7210.t12 VDD.t24 VDD.t11 sky130_fd_pr__pfet_01v8 ad=3.6432 pd=11.56 as=1.6698 ps=5.72 w=5.06 l=4.69
X7 a_n10827_11007.t8 a_n10683_10810.t6 a_n10683_10810.t7 VDD.t127 sky130_fd_pr__pfet_01v8 ad=0.9603 pd=3.57 as=2.0952 ps=7.26 w=2.91 l=5.29
X8 GND.t160 GND.t158 GND.t159 GND.t56 sky130_fd_pr__nfet_01v8 ad=2.1384 pd=7.38 as=0 ps=0 w=2.97 l=5.77
X9 VOUT.t46 a_n6906_9317.t0 sky130_fd_pr__cap_mim_m3_1 l=15.59 w=6.85
X10 VOUT.t6 CS_BIAS.t9 GND.t22 GND.t8 sky130_fd_pr__nfet_01v8 ad=0.9801 pd=3.63 as=2.1384 ps=7.38 w=2.97 l=5.77
X11 VDD.t114 VDD.t112 VDD.t113 VDD.t50 sky130_fd_pr__pfet_01v8 ad=3.6432 pd=11.56 as=0 ps=0 w=5.06 l=4.69
X12 GND.t157 GND.t155 GND.t156 GND.t56 sky130_fd_pr__nfet_01v8 ad=2.1384 pd=7.38 as=0 ps=0 w=2.97 l=5.77
X13 VDD.t111 VDD.t109 VDD.t110 VDD.t46 sky130_fd_pr__pfet_01v8 ad=2.0952 pd=7.26 as=0 ps=0 w=2.91 l=5.29
X14 a_n10827_11007.t15 a_n10683_10810.t20 VDD.t160 VDD.t159 sky130_fd_pr__pfet_01v8 ad=0.9603 pd=3.57 as=0.9603 ps=3.57 w=2.91 l=5.29
X15 VN.t6 GND.t152 GND.t154 GND.t153 sky130_fd_pr__nfet_01v8 ad=0.165 pd=1.33 as=0.165 ps=1.33 w=1 l=0.5
X16 GND.t151 GND.t149 GND.t150 GND.t52 sky130_fd_pr__nfet_01v8 ad=2.1384 pd=7.38 as=0 ps=0 w=2.97 l=5.77
X17 VDD.t108 VDD.t106 VDD.t107 VDD.t38 sky130_fd_pr__pfet_01v8 ad=3.6432 pd=11.56 as=0 ps=0 w=5.06 l=4.69
X18 GND.t148 GND.t146 GND.t147 GND.t42 sky130_fd_pr__nfet_01v8 ad=1.6416 pd=6 as=0 ps=0 w=2.28 l=5.28
X19 GND.t139 GND.t137 GND.t138 GND.t101 sky130_fd_pr__nfet_01v8 ad=1.6416 pd=6 as=0 ps=0 w=2.28 l=5.28
X20 VOUT.t1 a_n17822_7210.t13 VDD.t3 VDD.t2 sky130_fd_pr__pfet_01v8 ad=1.6698 pd=5.72 as=3.6432 ps=11.56 w=5.06 l=4.69
X21 VDD.t105 VDD.t103 VDD.t104 VDD.t38 sky130_fd_pr__pfet_01v8 ad=3.6432 pd=11.56 as=0 ps=0 w=5.06 l=4.69
X22 VOUT.t24 a_n17822_7210.t14 VDD.t14 VDD.t9 sky130_fd_pr__pfet_01v8 ad=1.6698 pd=5.72 as=3.6432 ps=11.56 w=5.06 l=4.69
X23 VDD.t164 a_n17822_7210.t15 VOUT.t40 VDD.t6 sky130_fd_pr__pfet_01v8 ad=1.6698 pd=5.72 as=1.6698 ps=5.72 w=5.06 l=4.69
X24 VOUT.t45 a_n17822_7210.t16 VDD.t169 VDD.t9 sky130_fd_pr__pfet_01v8 ad=1.6698 pd=5.72 as=3.6432 ps=11.56 w=5.06 l=4.69
X25 VOUT.t32 a_n17822_7210.t17 VDD.t22 VDD.t4 sky130_fd_pr__pfet_01v8 ad=3.6432 pd=11.56 as=1.6698 ps=5.72 w=5.06 l=4.69
X26 VOUT.t28 a_n17822_7210.t18 VDD.t18 VDD.t2 sky130_fd_pr__pfet_01v8 ad=1.6698 pd=5.72 as=3.6432 ps=11.56 w=5.06 l=4.69
X27 a_n2596_242.t3 VP.t7 a_n10683_10810.t2 GND.t32 sky130_fd_pr__nfet_01v8 ad=1.6416 pd=6 as=0.7524 ps=2.94 w=2.28 l=5.28
X28 VDD.t1 a_n17822_7210.t19 VOUT.t0 VDD.t0 sky130_fd_pr__pfet_01v8 ad=1.6698 pd=5.72 as=1.6698 ps=5.72 w=5.06 l=4.69
X29 GND.t145 GND.t143 VP.t6 GND.t144 sky130_fd_pr__nfet_01v8 ad=0.165 pd=1.33 as=0.39 ps=2.78 w=1 l=0.5
X30 a_n17822_7210.t5 a_n10683_10810.t21 a_n6906_9317.t8 VDD.t121 sky130_fd_pr__pfet_01v8 ad=0.9603 pd=3.57 as=0.9603 ps=3.57 w=2.91 l=5.29
X31 GND.t21 CS_BIAS.t10 VOUT.t5 GND.t2 sky130_fd_pr__nfet_01v8 ad=2.1384 pd=7.38 as=0.9801 ps=3.63 w=2.97 l=5.77
X32 VOUT.t3 CS_BIAS.t11 GND.t20 GND.t8 sky130_fd_pr__nfet_01v8 ad=0.9801 pd=3.63 as=2.1384 ps=7.38 w=2.97 l=5.77
X33 VOUT.t8 CS_BIAS.t12 GND.t19 GND.t4 sky130_fd_pr__nfet_01v8 ad=0.9801 pd=3.63 as=2.1384 ps=7.38 w=2.97 l=5.77
X34 GND.t142 GND.t140 GND.t141 GND.t38 sky130_fd_pr__nfet_01v8 ad=2.1384 pd=7.38 as=0 ps=0 w=2.97 l=5.77
X35 a_n10683_10810.t0 VP.t8 a_n2596_242.t0 GND.t24 sky130_fd_pr__nfet_01v8 ad=0.7524 pd=2.94 as=1.6416 ps=6 w=2.28 l=5.28
X36 VOUT.t35 a_n17822_7210.t20 VDD.t25 VDD.t11 sky130_fd_pr__pfet_01v8 ad=3.6432 pd=11.56 as=1.6698 ps=5.72 w=5.06 l=4.69
X37 a_n6906_9317.t16 a_n10683_10810.t22 VDD.t158 VDD.t157 sky130_fd_pr__pfet_01v8 ad=2.0952 pd=7.26 as=0.9603 ps=3.57 w=2.91 l=5.29
X38 GND.t136 GND.t134 VP.t5 GND.t135 sky130_fd_pr__nfet_01v8 ad=0.39 pd=2.78 as=0.165 ps=1.33 w=1 l=0.5
X39 VDD.t102 VDD.t100 VDD.t101 VDD.t50 sky130_fd_pr__pfet_01v8 ad=3.6432 pd=11.56 as=0 ps=0 w=5.06 l=4.69
X40 VDD.t99 VDD.t97 VDD.t98 VDD.t34 sky130_fd_pr__pfet_01v8 ad=3.6432 pd=11.56 as=0 ps=0 w=5.06 l=4.69
X41 VOUT.t13 CS_BIAS.t13 GND.t18 GND.t8 sky130_fd_pr__nfet_01v8 ad=0.9801 pd=3.63 as=2.1384 ps=7.38 w=2.97 l=5.77
X42 GND.t17 CS_BIAS.t14 VOUT.t14 GND.t0 sky130_fd_pr__nfet_01v8 ad=2.1384 pd=7.38 as=0.9801 ps=3.63 w=2.97 l=5.77
X43 GND.t16 CS_BIAS.t15 VOUT.t15 GND.t0 sky130_fd_pr__nfet_01v8 ad=2.1384 pd=7.38 as=0.9801 ps=3.63 w=2.97 l=5.77
X44 VOUT.t31 a_n17822_7210.t21 VDD.t21 VDD.t2 sky130_fd_pr__pfet_01v8 ad=1.6698 pd=5.72 as=3.6432 ps=11.56 w=5.06 l=4.69
X45 VOUT.t21 a_n17822_7210.t22 VDD.t10 VDD.t9 sky130_fd_pr__pfet_01v8 ad=1.6698 pd=5.72 as=3.6432 ps=11.56 w=5.06 l=4.69
X46 VDD.t96 VDD.t94 VDD.t95 VDD.t38 sky130_fd_pr__pfet_01v8 ad=3.6432 pd=11.56 as=0 ps=0 w=5.06 l=4.69
X47 VN.t5 GND.t131 GND.t133 GND.t132 sky130_fd_pr__nfet_01v8 ad=0.165 pd=1.33 as=0.165 ps=1.33 w=1 l=0.5
X48 VOUT.t2 CS_BIAS.t16 GND.t15 GND.t4 sky130_fd_pr__nfet_01v8 ad=0.9801 pd=3.63 as=2.1384 ps=7.38 w=2.97 l=5.77
X49 VDD.t7 a_n17822_7210.t23 VOUT.t19 VDD.t6 sky130_fd_pr__pfet_01v8 ad=1.6698 pd=5.72 as=1.6698 ps=5.72 w=5.06 l=4.69
X50 GND.t130 GND.t128 GND.t129 GND.t56 sky130_fd_pr__nfet_01v8 ad=2.1384 pd=7.38 as=0 ps=0 w=2.97 l=5.77
X51 GND.t127 GND.t125 VP.t4 GND.t126 sky130_fd_pr__nfet_01v8 ad=0.165 pd=1.33 as=0.165 ps=1.33 w=1 l=0.5
X52 a_n10683_10810.t17 a_n10683_10810.t16 a_n10827_11007.t7 VDD.t146 sky130_fd_pr__pfet_01v8 ad=0.9603 pd=3.57 as=0.9603 ps=3.57 w=2.91 l=5.29
X53 VDD.t93 VDD.t91 VDD.t92 VDD.t38 sky130_fd_pr__pfet_01v8 ad=3.6432 pd=11.56 as=0 ps=0 w=5.06 l=4.69
X54 GND.t124 GND.t122 GND.t123 GND.t52 sky130_fd_pr__nfet_01v8 ad=2.1384 pd=7.38 as=0 ps=0 w=2.97 l=5.77
X55 VOUT.t42 a_n17822_7210.t24 VDD.t166 VDD.t2 sky130_fd_pr__pfet_01v8 ad=1.6698 pd=5.72 as=3.6432 ps=11.56 w=5.06 l=4.69
X56 a_n10827_11007.t14 a_n10683_10810.t23 VDD.t156 VDD.t155 sky130_fd_pr__pfet_01v8 ad=2.0952 pd=7.26 as=0.9603 ps=3.57 w=2.91 l=5.29
X57 a_n10827_11007.t13 a_n10683_10810.t24 VDD.t154 VDD.t153 sky130_fd_pr__pfet_01v8 ad=0.9603 pd=3.57 as=0.9603 ps=3.57 w=2.91 l=5.29
X58 a_10955_11007# a_10955_11007# a_10955_11007# VDD.t28 sky130_fd_pr__pfet_01v8 ad=2.0952 pd=7.26 as=4.1904 ps=14.52 w=2.91 l=5.29
X59 GND.t121 GND.t119 GND.t120 GND.t38 sky130_fd_pr__nfet_01v8 ad=2.1384 pd=7.38 as=0 ps=0 w=2.97 l=5.77
X60 GND.t118 GND.t116 VP.t3 GND.t117 sky130_fd_pr__nfet_01v8 ad=0.165 pd=1.33 as=0.165 ps=1.33 w=1 l=0.5
X61 a_n17822_7210.t9 a_n10683_10810.t25 a_n6906_9317.t7 VDD.t130 sky130_fd_pr__pfet_01v8 ad=0.9603 pd=3.57 as=2.0952 ps=7.26 w=2.91 l=5.29
X62 VDD.t152 a_n10683_10810.t26 a_n10827_11007.t12 VDD.t151 sky130_fd_pr__pfet_01v8 ad=0.9603 pd=3.57 as=0.9603 ps=3.57 w=2.91 l=5.29
X63 a_n10827_11007.t1 a_n10683_10810.t27 VDD.t150 VDD.t149 sky130_fd_pr__pfet_01v8 ad=2.0952 pd=7.26 as=0.9603 ps=3.57 w=2.91 l=5.29
X64 VDD.t148 a_n10683_10810.t28 a_n10827_11007.t0 VDD.t147 sky130_fd_pr__pfet_01v8 ad=0.9603 pd=3.57 as=2.0952 ps=7.26 w=2.91 l=5.29
X65 GND.t11 CS_BIAS.t4 CS_BIAS.t5 GND.t2 sky130_fd_pr__nfet_01v8 ad=2.1384 pd=7.38 as=0.9801 ps=3.63 w=2.97 l=5.77
X66 VDD.t90 VDD.t88 VDD.t89 VDD.t34 sky130_fd_pr__pfet_01v8 ad=3.6432 pd=11.56 as=0 ps=0 w=5.06 l=4.69
X67 a_n6906_9317.t6 a_n10683_10810.t29 a_n17822_7210.t6 VDD.t146 sky130_fd_pr__pfet_01v8 ad=0.9603 pd=3.57 as=0.9603 ps=3.57 w=2.91 l=5.29
X68 VOUT.t10 CS_BIAS.t17 GND.t14 GND.t8 sky130_fd_pr__nfet_01v8 ad=0.9801 pd=3.63 as=2.1384 ps=7.38 w=2.97 l=5.77
X69 VDD.t145 a_n10683_10810.t30 a_n10827_11007.t2 VDD.t144 sky130_fd_pr__pfet_01v8 ad=0.9603 pd=3.57 as=0.9603 ps=3.57 w=2.91 l=5.29
X70 VOUT.t16 CS_BIAS.t18 GND.t13 GND.t4 sky130_fd_pr__nfet_01v8 ad=0.9801 pd=3.63 as=2.1384 ps=7.38 w=2.97 l=5.77
X71 CS_BIAS.t1 CS_BIAS.t0 GND.t12 GND.t4 sky130_fd_pr__nfet_01v8 ad=0.9801 pd=3.63 as=2.1384 ps=7.38 w=2.97 l=5.77
X72 VDD.t143 a_n10683_10810.t31 a_n6906_9317.t15 VDD.t142 sky130_fd_pr__pfet_01v8 ad=0.9603 pd=3.57 as=2.0952 ps=7.26 w=2.91 l=5.29
X73 VOUT.t25 a_n17822_7210.t25 VDD.t15 VDD.t11 sky130_fd_pr__pfet_01v8 ad=3.6432 pd=11.56 as=1.6698 ps=5.72 w=5.06 l=4.69
X74 a_n17822_7210.t7 a_n10683_10810.t32 a_n6906_9317.t5 VDD.t141 sky130_fd_pr__pfet_01v8 ad=0.9603 pd=3.57 as=0.9603 ps=3.57 w=2.91 l=5.29
X75 a_n6906_9317.t4 a_n10683_10810.t33 a_n17822_7210.t4 VDD.t122 sky130_fd_pr__pfet_01v8 ad=2.0952 pd=7.26 as=0.9603 ps=3.57 w=2.91 l=5.29
X76 GND.t10 CS_BIAS.t19 VOUT.t4 GND.t2 sky130_fd_pr__nfet_01v8 ad=2.1384 pd=7.38 as=0.9801 ps=3.63 w=2.97 l=5.77
X77 a_n6906_9317.t14 a_n10683_10810.t34 VDD.t140 VDD.t139 sky130_fd_pr__pfet_01v8 ad=0.9603 pd=3.57 as=0.9603 ps=3.57 w=2.91 l=5.29
X78 CS_BIAS.t7 CS_BIAS.t6 GND.t9 GND.t8 sky130_fd_pr__nfet_01v8 ad=0.9801 pd=3.63 as=2.1384 ps=7.38 w=2.97 l=5.77
X79 a_n12301_11007# a_n12301_11007# a_n12301_11007# VDD.t27 sky130_fd_pr__pfet_01v8 ad=2.0952 pd=7.26 as=4.1904 ps=14.52 w=2.91 l=5.29
X80 VN.t4 GND.t110 GND.t112 GND.t111 sky130_fd_pr__nfet_01v8 ad=0.165 pd=1.33 as=0.165 ps=1.33 w=1 l=0.5
X81 VDD.t87 VDD.t85 VDD.t86 VDD.t50 sky130_fd_pr__pfet_01v8 ad=3.6432 pd=11.56 as=0 ps=0 w=5.06 l=4.69
X82 a_n6906_9317.t3 a_n10683_10810.t35 a_n17822_7210.t8 VDD.t124 sky130_fd_pr__pfet_01v8 ad=2.0952 pd=7.26 as=0.9603 ps=3.57 w=2.91 l=5.29
X83 VOUT.t27 a_n17822_7210.t26 VDD.t17 VDD.t11 sky130_fd_pr__pfet_01v8 ad=3.6432 pd=11.56 as=1.6698 ps=5.72 w=5.06 l=4.69
X84 VDD.t84 VDD.t81 VDD.t83 VDD.t82 sky130_fd_pr__pfet_01v8 ad=2.0952 pd=7.26 as=0 ps=0 w=2.91 l=5.29
X85 GND.t7 CS_BIAS.t2 CS_BIAS.t3 GND.t0 sky130_fd_pr__nfet_01v8 ad=2.1384 pd=7.38 as=0.9801 ps=3.63 w=2.97 l=5.77
X86 GND.t115 GND.t113 GND.t114 GND.t52 sky130_fd_pr__nfet_01v8 ad=2.1384 pd=7.38 as=0 ps=0 w=2.97 l=5.77
X87 VDD.t138 a_n10683_10810.t36 a_n6906_9317.t13 VDD.t137 sky130_fd_pr__pfet_01v8 ad=0.9603 pd=3.57 as=0.9603 ps=3.57 w=2.91 l=5.29
X88 VOUT.t30 a_n17822_7210.t27 VDD.t20 VDD.t4 sky130_fd_pr__pfet_01v8 ad=3.6432 pd=11.56 as=1.6698 ps=5.72 w=5.06 l=4.69
X89 VDD.t162 a_n17822_7210.t28 VOUT.t38 VDD.t6 sky130_fd_pr__pfet_01v8 ad=1.6698 pd=5.72 as=1.6698 ps=5.72 w=5.06 l=4.69
X90 VDD.t136 a_n10683_10810.t37 a_n6906_9317.t12 VDD.t135 sky130_fd_pr__pfet_01v8 ad=0.9603 pd=3.57 as=0.9603 ps=3.57 w=2.91 l=5.29
X91 VDD.t80 VDD.t78 VDD.t79 VDD.t30 sky130_fd_pr__pfet_01v8 ad=2.0952 pd=7.26 as=0 ps=0 w=2.91 l=5.29
X92 VDD.t77 VDD.t75 VDD.t76 VDD.t42 sky130_fd_pr__pfet_01v8 ad=3.6432 pd=11.56 as=0 ps=0 w=5.06 l=4.69
X93 VDD.t134 a_n10683_10810.t38 a_n10827_11007.t11 VDD.t133 sky130_fd_pr__pfet_01v8 ad=0.9603 pd=3.57 as=2.0952 ps=7.26 w=2.91 l=5.29
X94 VP.t2 GND.t107 GND.t109 GND.t108 sky130_fd_pr__nfet_01v8 ad=0.165 pd=1.33 as=0.165 ps=1.33 w=1 l=0.5
X95 a_n6906_9317.t11 a_n10683_10810.t39 VDD.t132 VDD.t131 sky130_fd_pr__pfet_01v8 ad=2.0952 pd=7.26 as=0.9603 ps=3.57 w=2.91 l=5.29
X96 VOUT.t20 a_n17822_7210.t29 VDD.t8 VDD.t2 sky130_fd_pr__pfet_01v8 ad=1.6698 pd=5.72 as=3.6432 ps=11.56 w=5.06 l=4.69
X97 VDD.t13 a_n17822_7210.t30 VOUT.t23 VDD.t6 sky130_fd_pr__pfet_01v8 ad=1.6698 pd=5.72 as=1.6698 ps=5.72 w=5.06 l=4.69
X98 VDD.t74 VDD.t72 VDD.t73 VDD.t34 sky130_fd_pr__pfet_01v8 ad=3.6432 pd=11.56 as=0 ps=0 w=5.06 l=4.69
X99 DIFFPAIR_BIAS.t3 DIFFPAIR_BIAS.t2 GND.t28 GND.t27 sky130_fd_pr__nfet_01v8 ad=1.6056 pd=5.9 as=1.6056 ps=5.9 w=2.23 l=4.26
X100 GND.t106 GND.t104 GND.t105 GND.t38 sky130_fd_pr__nfet_01v8 ad=2.1384 pd=7.38 as=0 ps=0 w=2.97 l=5.77
X101 a_n17822_7210.t2 VN.t8 a_n2596_242.t7 GND.t163 sky130_fd_pr__nfet_01v8 ad=0.7524 pd=2.94 as=1.6416 ps=6 w=2.28 l=5.28
X102 GND.t6 CS_BIAS.t20 VOUT.t11 GND.t2 sky130_fd_pr__nfet_01v8 ad=2.1384 pd=7.38 as=0.9801 ps=3.63 w=2.97 l=5.77
X103 a_n10827_11007.t6 a_n10683_10810.t10 a_n10683_10810.t11 VDD.t130 sky130_fd_pr__pfet_01v8 ad=0.9603 pd=3.57 as=2.0952 ps=7.26 w=2.91 l=5.29
X104 VDD.t71 VDD.t68 VDD.t70 VDD.t69 sky130_fd_pr__pfet_01v8 ad=2.0952 pd=7.26 as=0 ps=0 w=2.91 l=5.29
X105 a_n6906_9317.t10 a_n10683_10810.t40 VDD.t129 VDD.t128 sky130_fd_pr__pfet_01v8 ad=0.9603 pd=3.57 as=0.9603 ps=3.57 w=2.91 l=5.29
X106 GND.t103 GND.t100 GND.t102 GND.t101 sky130_fd_pr__nfet_01v8 ad=1.6416 pd=6 as=0 ps=0 w=2.28 l=5.28
X107 GND.t99 GND.t96 GND.t98 GND.t97 sky130_fd_pr__nfet_01v8 ad=1.6056 pd=5.9 as=0 ps=0 w=2.23 l=4.26
X108 a_n17822_7210.t10 a_n10683_10810.t41 a_n6906_9317.t2 VDD.t127 sky130_fd_pr__pfet_01v8 ad=0.9603 pd=3.57 as=2.0952 ps=7.26 w=2.91 l=5.29
X109 GND.t95 GND.t93 GND.t94 GND.t52 sky130_fd_pr__nfet_01v8 ad=2.1384 pd=7.38 as=0 ps=0 w=2.97 l=5.77
X110 GND.t92 GND.t90 GND.t91 GND.t34 sky130_fd_pr__nfet_01v8 ad=2.1384 pd=7.38 as=0 ps=0 w=2.97 l=5.77
X111 VDD.t126 a_n10683_10810.t42 a_n6906_9317.t9 VDD.t125 sky130_fd_pr__pfet_01v8 ad=0.9603 pd=3.57 as=2.0952 ps=7.26 w=2.91 l=5.29
X112 VOUT.t12 CS_BIAS.t21 GND.t5 GND.t4 sky130_fd_pr__nfet_01v8 ad=0.9801 pd=3.63 as=2.1384 ps=7.38 w=2.97 l=5.77
X113 VDD.t67 VDD.t65 VDD.t66 VDD.t50 sky130_fd_pr__pfet_01v8 ad=3.6432 pd=11.56 as=0 ps=0 w=5.06 l=4.69
X114 VOUT.t22 a_n17822_7210.t31 VDD.t12 VDD.t11 sky130_fd_pr__pfet_01v8 ad=3.6432 pd=11.56 as=1.6698 ps=5.72 w=5.06 l=4.69
X115 GND.t89 GND.t87 VN.t3 GND.t88 sky130_fd_pr__nfet_01v8 ad=0.165 pd=1.33 as=0.165 ps=1.33 w=1 l=0.5
X116 VP.t1 GND.t84 GND.t86 GND.t85 sky130_fd_pr__nfet_01v8 ad=0.165 pd=1.33 as=0.165 ps=1.33 w=1 l=0.5
X117 VDD.t26 a_n17822_7210.t32 VOUT.t36 VDD.t0 sky130_fd_pr__pfet_01v8 ad=1.6698 pd=5.72 as=1.6698 ps=5.72 w=5.06 l=4.69
X118 VOUT.t33 a_n17822_7210.t33 VDD.t23 VDD.t4 sky130_fd_pr__pfet_01v8 ad=3.6432 pd=11.56 as=1.6698 ps=5.72 w=5.06 l=4.69
X119 VDD.t64 VDD.t62 VDD.t63 VDD.t42 sky130_fd_pr__pfet_01v8 ad=3.6432 pd=11.56 as=0 ps=0 w=5.06 l=4.69
X120 VDD.t61 VDD.t59 VDD.t60 VDD.t42 sky130_fd_pr__pfet_01v8 ad=3.6432 pd=11.56 as=0 ps=0 w=5.06 l=4.69
X121 GND.t83 GND.t81 GND.t82 GND.t56 sky130_fd_pr__nfet_01v8 ad=2.1384 pd=7.38 as=0 ps=0 w=2.97 l=5.77
X122 a_n2596_242.t6 VN.t9 a_n17822_7210.t1 GND.t31 sky130_fd_pr__nfet_01v8 ad=1.6416 pd=6 as=0.7524 ps=2.94 w=2.28 l=5.28
X123 VDD.t168 a_n17822_7210.t34 VOUT.t44 VDD.t6 sky130_fd_pr__pfet_01v8 ad=1.6698 pd=5.72 as=1.6698 ps=5.72 w=5.06 l=4.69
X124 DIFFPAIR_BIAS.t1 DIFFPAIR_BIAS.t0 GND.t30 GND.t29 sky130_fd_pr__nfet_01v8 ad=1.6056 pd=5.9 as=1.6056 ps=5.9 w=2.23 l=4.26
X125 GND.t80 GND.t78 VN.t2 GND.t79 sky130_fd_pr__nfet_01v8 ad=0.39 pd=2.78 as=0.165 ps=1.33 w=1 l=0.5
X126 VP.t0 GND.t75 GND.t77 GND.t76 sky130_fd_pr__nfet_01v8 ad=0.165 pd=1.33 as=0.165 ps=1.33 w=1 l=0.5
X127 VDD.t58 VDD.t56 VDD.t57 VDD.t34 sky130_fd_pr__pfet_01v8 ad=3.6432 pd=11.56 as=0 ps=0 w=5.06 l=4.69
X128 GND.t74 GND.t72 GND.t73 GND.t34 sky130_fd_pr__nfet_01v8 ad=2.1384 pd=7.38 as=0 ps=0 w=2.97 l=5.77
X129 a_n10683_10810.t15 a_n10683_10810.t14 a_n10827_11007.t5 VDD.t124 sky130_fd_pr__pfet_01v8 ad=2.0952 pd=7.26 as=0.9603 ps=3.57 w=2.91 l=5.29
X130 VOUT.t39 a_n17822_7210.t35 VDD.t163 VDD.t9 sky130_fd_pr__pfet_01v8 ad=1.6698 pd=5.72 as=3.6432 ps=11.56 w=5.06 l=4.69
X131 a_n2596_242.t8 DIFFPAIR_BIAS.t4 GND.t162 GND.t161 sky130_fd_pr__nfet_01v8 ad=1.6056 pd=5.9 as=1.6056 ps=5.9 w=2.23 l=4.26
X132 VDD.t165 a_n17822_7210.t36 VOUT.t41 VDD.t0 sky130_fd_pr__pfet_01v8 ad=1.6698 pd=5.72 as=1.6698 ps=5.72 w=5.06 l=4.69
X133 GND.t71 GND.t69 GND.t70 GND.t34 sky130_fd_pr__nfet_01v8 ad=2.1384 pd=7.38 as=0 ps=0 w=2.97 l=5.77
X134 a_n10683_10810.t3 VP.t9 a_n2596_242.t9 GND.t163 sky130_fd_pr__nfet_01v8 ad=0.7524 pd=2.94 as=1.6416 ps=6 w=2.28 l=5.28
X135 GND.t68 GND.t66 VN.t1 GND.t67 sky130_fd_pr__nfet_01v8 ad=0.165 pd=1.33 as=0.165 ps=1.33 w=1 l=0.5
X136 GND.t65 GND.t62 GND.t64 GND.t63 sky130_fd_pr__nfet_01v8 ad=1.6056 pd=5.9 as=0 ps=0 w=2.23 l=4.26
X137 a_n2596_242.t1 DIFFPAIR_BIAS.t5 GND.t26 GND.t25 sky130_fd_pr__nfet_01v8 ad=1.6056 pd=5.9 as=1.6056 ps=5.9 w=2.23 l=4.26
X138 a_n2596_242.t5 VN.t10 a_n17822_7210.t0 GND.t32 sky130_fd_pr__nfet_01v8 ad=1.6416 pd=6 as=0.7524 ps=2.94 w=2.28 l=5.28
X139 GND.t61 GND.t59 VN.t0 GND.t60 sky130_fd_pr__nfet_01v8 ad=0.165 pd=1.33 as=0.39 ps=2.78 w=1 l=0.5
X140 GND.t3 CS_BIAS.t22 VOUT.t17 GND.t2 sky130_fd_pr__nfet_01v8 ad=2.1384 pd=7.38 as=0.9801 ps=3.63 w=2.97 l=5.77
X141 GND.t58 GND.t55 GND.t57 GND.t56 sky130_fd_pr__nfet_01v8 ad=2.1384 pd=7.38 as=0 ps=0 w=2.97 l=5.77
X142 VDD.t167 a_n17822_7210.t37 VOUT.t43 VDD.t0 sky130_fd_pr__pfet_01v8 ad=1.6698 pd=5.72 as=1.6698 ps=5.72 w=5.06 l=4.69
X143 GND.t54 GND.t51 GND.t53 GND.t52 sky130_fd_pr__nfet_01v8 ad=2.1384 pd=7.38 as=0 ps=0 w=2.97 l=5.77
X144 GND.t50 GND.t48 GND.t49 GND.t38 sky130_fd_pr__nfet_01v8 ad=2.1384 pd=7.38 as=0 ps=0 w=2.97 l=5.77
X145 VDD.t55 VDD.t53 VDD.t54 VDD.t42 sky130_fd_pr__pfet_01v8 ad=3.6432 pd=11.56 as=0 ps=0 w=5.06 l=4.69
X146 VDD.t52 VDD.t49 VDD.t51 VDD.t50 sky130_fd_pr__pfet_01v8 ad=3.6432 pd=11.56 as=0 ps=0 w=5.06 l=4.69
X147 a_n6906_9317.t1 a_n10683_10810.t43 a_n17822_7210.t11 VDD.t123 sky130_fd_pr__pfet_01v8 ad=0.9603 pd=3.57 as=0.9603 ps=3.57 w=2.91 l=5.29
X148 GND.t1 CS_BIAS.t23 VOUT.t9 GND.t0 sky130_fd_pr__nfet_01v8 ad=2.1384 pd=7.38 as=0.9801 ps=3.63 w=2.97 l=5.77
X149 a_n2596_242.t2 VP.t10 a_n10683_10810.t1 GND.t31 sky130_fd_pr__nfet_01v8 ad=1.6416 pd=6 as=0.7524 ps=2.94 w=2.28 l=5.28
X150 VDD.t48 VDD.t45 VDD.t47 VDD.t46 sky130_fd_pr__pfet_01v8 ad=2.0952 pd=7.26 as=0 ps=0 w=2.91 l=5.29
X151 VOUT.t26 a_n17822_7210.t38 VDD.t16 VDD.t4 sky130_fd_pr__pfet_01v8 ad=3.6432 pd=11.56 as=1.6698 ps=5.72 w=5.06 l=4.69
X152 VDD.t44 VDD.t41 VDD.t43 VDD.t42 sky130_fd_pr__pfet_01v8 ad=3.6432 pd=11.56 as=0 ps=0 w=5.06 l=4.69
X153 VOUT.t47 a_n6906_9317.t0 sky130_fd_pr__cap_mim_m3_1 l=15.59 w=6.85
X154 VOUT.t29 a_n17822_7210.t39 VDD.t19 VDD.t9 sky130_fd_pr__pfet_01v8 ad=1.6698 pd=5.72 as=3.6432 ps=11.56 w=5.06 l=4.69
X155 VDD.t40 VDD.t37 VDD.t39 VDD.t38 sky130_fd_pr__pfet_01v8 ad=3.6432 pd=11.56 as=0 ps=0 w=5.06 l=4.69
X156 VDD.t161 a_n17822_7210.t40 VOUT.t37 VDD.t0 sky130_fd_pr__pfet_01v8 ad=1.6698 pd=5.72 as=1.6698 ps=5.72 w=5.06 l=4.69
X157 a_n10683_10810.t13 a_n10683_10810.t12 a_n10827_11007.t4 VDD.t122 sky130_fd_pr__pfet_01v8 ad=2.0952 pd=7.26 as=0.9603 ps=3.57 w=2.91 l=5.29
X158 VDD.t36 VDD.t33 VDD.t35 VDD.t34 sky130_fd_pr__pfet_01v8 ad=3.6432 pd=11.56 as=0 ps=0 w=5.06 l=4.69
X159 GND.t47 GND.t45 GND.t46 GND.t34 sky130_fd_pr__nfet_01v8 ad=2.1384 pd=7.38 as=0 ps=0 w=2.97 l=5.77
X160 GND.t44 GND.t41 GND.t43 GND.t42 sky130_fd_pr__nfet_01v8 ad=1.6416 pd=6 as=0 ps=0 w=2.28 l=5.28
X161 a_n10827_11007.t3 a_n10683_10810.t8 a_n10683_10810.t9 VDD.t121 sky130_fd_pr__pfet_01v8 ad=0.9603 pd=3.57 as=0.9603 ps=3.57 w=2.91 l=5.29
X162 VOUT.t18 a_n17822_7210.t41 VDD.t5 VDD.t4 sky130_fd_pr__pfet_01v8 ad=3.6432 pd=11.56 as=1.6698 ps=5.72 w=5.06 l=4.69
X163 GND.t40 GND.t37 GND.t39 GND.t38 sky130_fd_pr__nfet_01v8 ad=2.1384 pd=7.38 as=0 ps=0 w=2.97 l=5.77
X164 VDD.t32 VDD.t29 VDD.t31 VDD.t30 sky130_fd_pr__pfet_01v8 ad=2.0952 pd=7.26 as=0 ps=0 w=2.91 l=5.29
X165 GND.t36 GND.t33 GND.t35 GND.t34 sky130_fd_pr__nfet_01v8 ad=2.1384 pd=7.38 as=0 ps=0 w=2.97 l=5.77
R0 a_n10683_10810.n9 a_n10683_10810.n6 1.65239
R1 a_n10683_10810.n10 a_n10683_10810.n0 1.65239
R2 a_n10683_10810.n12 a_n10683_10810.t13 139.797
R3 a_n10683_10810.n11 a_n10683_10810.t11 139.797
R4 a_n10683_10810.n11 a_n10683_10810.t15 138.088
R5 a_n10683_10810.n12 a_n10683_10810.t7 138.087
R6 a_n10683_10810.n14 a_n10683_10810.t2 118.799
R7 a_n10683_10810.n11 a_n10683_10810.n15 115.746
R8 a_n10683_10810.n18 a_n10683_10810.n12 115.746
R9 a_n10683_10810.n14 a_n10683_10810.t1 88.9385
R10 a_n10683_10810.n4 a_n10683_10810.n3 5.3041
R11 a_n10683_10810.n7 a_n10683_10810.n0 2.34331
R12 a_n10683_10810.n17 a_n10683_10810.n7 64.6446
R13 a_n10683_10810.n10 a_n10683_10810.n17 64.6624
R14 a_n10683_10810.t6 a_n10683_10810.n10 33.5923
R15 a_n10683_10810.n8 a_n10683_10810.n6 2.34331
R16 a_n10683_10810.n16 a_n10683_10810.n8 64.6446
R17 a_n10683_10810.n9 a_n10683_10810.n16 64.6624
R18 a_n10683_10810.t25 a_n10683_10810.n9 33.5923
R19 a_n10683_10810.n3 a_n10683_10810.n14 24.432
R20 a_n10683_10810.n15 a_n10683_10810.t19 22.3407
R21 a_n10683_10810.n15 a_n10683_10810.t17 22.3407
R22 a_n10683_10810.n18 a_n10683_10810.t9 22.3407
R23 a_n10683_10810.t5 a_n10683_10810.n18 22.3407
R24 a_n10683_10810.n6 a_n10683_10810.n13 19.2399
R25 a_n10683_10810.n3 a_n10683_10810.n2 6.00387
R26 a_n10683_10810.t1 a_n10683_10810.t3 17.3689
R27 a_n10683_10810.t2 a_n10683_10810.t0 17.3689
R28 a_n10683_10810.n13 a_n10683_10810.n2 5.69867
R29 a_n10683_10810.n1 a_n10683_10810.n0 15.6527
R30 a_n10683_10810.n4 a_n10683_10810.t21 49.6596
R31 a_n10683_10810.n4 a_n10683_10810.t43 42.9336
R32 a_n10683_10810.n3 a_n10683_10810.t41 46.8496
R33 a_n10683_10810.n5 a_n10683_10810.t18 43.7124
R34 a_n10683_10810.n3 a_n10683_10810.t16 44.8617
R35 a_n10683_10810.n3 a_n10683_10810.t10 46.5211
R36 a_n10683_10810.n0 a_n10683_10810.t12 45.0818
R37 a_n10683_10810.n7 a_n10683_10810.t8 44.3575
R38 a_n10683_10810.n17 a_n10683_10810.t4 13.2578
R39 a_n10683_10810.n6 a_n10683_10810.t35 45.0818
R40 a_n10683_10810.n8 a_n10683_10810.t32 44.3575
R41 a_n10683_10810.n16 a_n10683_10810.t29 13.2578
R42 a_n10683_10810.n1 a_n10683_10810.t26 45.5055
R43 a_n10683_10810.n1 a_n10683_10810.t20 45.0124
R44 a_n10683_10810.n1 a_n10683_10810.t38 46.8496
R45 a_n10683_10810.n1 a_n10683_10810.t30 44.2702
R46 a_n10683_10810.n1 a_n10683_10810.t24 44.6185
R47 a_n10683_10810.n1 a_n10683_10810.t28 47.6796
R48 a_n10683_10810.n1 a_n10683_10810.t37 45.5055
R49 a_n10683_10810.n1 a_n10683_10810.t40 45.0124
R50 a_n10683_10810.n1 a_n10683_10810.t42 46.8496
R51 a_n10683_10810.n1 a_n10683_10810.t36 44.3336
R52 a_n10683_10810.n1 a_n10683_10810.t34 44.6185
R53 a_n10683_10810.n1 a_n10683_10810.t31 47.6796
R54 a_n10683_10810.n3 a_n10683_10810.n5 3.66108
R55 a_n10683_10810.n13 a_n10683_10810.n11 10.1708
R56 a_n10683_10810.n0 a_n10683_10810.n6 9.29361
R57 a_n10683_10810.n3 a_n10683_10810.t33 31.8245
R58 a_n10683_10810.n5 a_n10683_10810.t14 35.7049
R59 a_n10683_10810.n1 a_n10683_10810.t23 31.8245
R60 a_n10683_10810.n1 a_n10683_10810.t27 34.3477
R61 a_n10683_10810.n1 a_n10683_10810.t22 31.8245
R62 a_n10683_10810.n1 a_n10683_10810.t39 34.2167
R63 a_n10683_10810.n12 a_n10683_10810.n1 23.526
R64 a_n10683_10810.n2 a_n10683_10810.n1 19.9385
R65 a_n10827_11007.n0 a_n10827_11007.t1 139.797
R66 a_n10827_11007.n1 a_n10827_11007.t11 138.088
R67 a_n10827_11007.n0 a_n10827_11007.t14 138.088
R68 a_n10827_11007.n0 a_n10827_11007.t0 138.088
R69 a_n10827_11007.n9 a_n10827_11007.n2 137.044
R70 a_n10827_11007.n5 a_n10827_11007.n3 136.078
R71 a_n10827_11007.n5 a_n10827_11007.n4 135.334
R72 a_n10827_11007.n10 a_n10827_11007.n9 135.334
R73 a_n10827_11007.n1 a_n10827_11007.n7 115.746
R74 a_n10827_11007.n0 a_n10827_11007.n6 115.746
R75 a_n10827_11007.n2 a_n10827_11007.t4 22.3407
R76 a_n10827_11007.n2 a_n10827_11007.t3 22.3407
R77 a_n10827_11007.n7 a_n10827_11007.t12 22.3407
R78 a_n10827_11007.n7 a_n10827_11007.t15 22.3407
R79 a_n10827_11007.n6 a_n10827_11007.t2 22.3407
R80 a_n10827_11007.n6 a_n10827_11007.t13 22.3407
R81 a_n10827_11007.n4 a_n10827_11007.t7 22.3407
R82 a_n10827_11007.n4 a_n10827_11007.t6 22.3407
R83 a_n10827_11007.n3 a_n10827_11007.t5 22.3407
R84 a_n10827_11007.n3 a_n10827_11007.t9 22.3407
R85 a_n10827_11007.t10 a_n10827_11007.n10 22.3407
R86 a_n10827_11007.n10 a_n10827_11007.t8 22.3407
R87 a_n10827_11007.n8 a_n10827_11007.n5 17.7024
R88 a_n10827_11007.n9 a_n10827_11007.n8 13.2382
R89 a_n10827_11007.n8 a_n10827_11007.n1 5.76343
R90 a_n10827_11007.n1 a_n10827_11007.n0 5.54145
R91 VDD.n3968 VDD.n127 475.611
R92 VDD.n4539 VDD.n4169 475.611
R93 VDD.n4318 VDD.n4167 475.611
R94 VDD.n3970 VDD.n125 475.611
R95 VDD.n2169 VDD.n1211 475.611
R96 VDD.n2172 VDD.n2171 475.611
R97 VDD.n1697 VDD.n1388 475.611
R98 VDD.n1695 VDD.n1390 475.611
R99 VDD.n3742 VDD.n242 355.611
R100 VDD.n3709 VDD.n239 355.611
R101 VDD.n3111 VDD.n2897 355.611
R102 VDD.n3336 VDD.n601 355.611
R103 VDD.n2852 VDD.n632 355.611
R104 VDD.n2818 VDD.n2817 355.611
R105 VDD.n2431 VDD.n987 355.611
R106 VDD.n2465 VDD.n977 355.611
R107 VDD.n3688 VDD.n240 355.611
R108 VDD.n3745 VDD.n3744 355.611
R109 VDD.n3298 VDD.n3112 355.611
R110 VDD.n3334 VDD.n3113 355.611
R111 VDD.n2894 VDD.n621 355.611
R112 VDD.n2859 VDD.n620 355.611
R113 VDD.n2243 VDD.n996 355.611
R114 VDD.n997 VDD.n973 355.611
R115 VDD.n1154 VDD.t48 236.714
R116 VDD.n624 VDD.t116 236.714
R117 VDD.n253 VDD.t31 236.714
R118 VDD.n2900 VDD.t71 236.714
R119 VDD.n634 VDD.t83 236.714
R120 VDD.n1000 VDD.t111 236.714
R121 VDD.n230 VDD.t79 236.714
R122 VDD.n3120 VDD.t120 236.714
R123 VDD.n1490 VDD.t33 235.915
R124 VDD.n1556 VDD.t88 235.915
R125 VDD.n1586 VDD.t97 235.915
R126 VDD.n1641 VDD.t56 235.915
R127 VDD.n1419 VDD.t72 235.915
R128 VDD.n1975 VDD.t75 235.915
R129 VDD.n2035 VDD.t41 235.915
R130 VDD.n1189 VDD.t53 235.915
R131 VDD.n1164 VDD.t59 235.915
R132 VDD.n2004 VDD.t62 235.915
R133 VDD.n206 VDD.t49 235.915
R134 VDD.n3795 VDD.t100 235.915
R135 VDD.n4256 VDD.t91 235.915
R136 VDD.n4320 VDD.t94 235.915
R137 VDD.n4288 VDD.t103 235.915
R138 VDD.n4225 VDD.t106 235.915
R139 VDD.n4508 VDD.t37 235.915
R140 VDD.n150 VDD.t85 235.915
R141 VDD.n177 VDD.t65 235.915
R142 VDD.n3832 VDD.t112 235.915
R143 VDD.n1154 VDD.t45 223.453
R144 VDD.n624 VDD.t115 223.453
R145 VDD.n253 VDD.t29 223.453
R146 VDD.n2900 VDD.t68 223.453
R147 VDD.n634 VDD.t81 223.453
R148 VDD.n1000 VDD.t109 223.453
R149 VDD.n230 VDD.t78 223.453
R150 VDD.n3120 VDD.t118 223.453
R151 VDD.n4320 VDD.t95 198.272
R152 VDD.n177 VDD.t67 198.272
R153 VDD.n3832 VDD.t114 198.272
R154 VDD.n1490 VDD.t36 188.672
R155 VDD.n1556 VDD.t90 188.672
R156 VDD.n1586 VDD.t99 188.672
R157 VDD.n1641 VDD.t58 188.672
R158 VDD.n1419 VDD.t74 188.672
R159 VDD.n1975 VDD.t76 188.672
R160 VDD.n2035 VDD.t43 188.672
R161 VDD.n1189 VDD.t54 188.672
R162 VDD.n1164 VDD.t60 188.672
R163 VDD.n2004 VDD.t63 188.672
R164 VDD.n206 VDD.t52 188.672
R165 VDD.n3795 VDD.t102 188.672
R166 VDD.n4256 VDD.t92 188.672
R167 VDD.n4288 VDD.t104 188.672
R168 VDD.n4225 VDD.t107 188.672
R169 VDD.n4508 VDD.t39 188.672
R170 VDD.n150 VDD.t87 188.672
R171 VDD.n3690 VDD.n240 185
R172 VDD.n3743 VDD.n240 185
R173 VDD.n3692 VDD.n3691 185
R174 VDD.n3691 VDD.n238 185
R175 VDD.n3693 VDD.n261 185
R176 VDD.n3703 VDD.n261 185
R177 VDD.n3694 VDD.n269 185
R178 VDD.n269 VDD.n259 185
R179 VDD.n3696 VDD.n3695 185
R180 VDD.n3697 VDD.n3696 185
R181 VDD.n3668 VDD.n268 185
R182 VDD.n268 VDD.n265 185
R183 VDD.n3667 VDD.n3666 185
R184 VDD.n3666 VDD.n3665 185
R185 VDD.n271 VDD.n270 185
R186 VDD.n272 VDD.n271 185
R187 VDD.n3658 VDD.n3657 185
R188 VDD.n3659 VDD.n3658 185
R189 VDD.n3656 VDD.n281 185
R190 VDD.n281 VDD.n278 185
R191 VDD.n3655 VDD.n3654 185
R192 VDD.n3654 VDD.n3653 185
R193 VDD.n283 VDD.n282 185
R194 VDD.n292 VDD.n283 185
R195 VDD.n3646 VDD.n3645 185
R196 VDD.n3647 VDD.n3646 185
R197 VDD.n3644 VDD.n293 185
R198 VDD.n293 VDD.n289 185
R199 VDD.n3643 VDD.n3642 185
R200 VDD.n3642 VDD.n3641 185
R201 VDD.n295 VDD.n294 185
R202 VDD.n296 VDD.n295 185
R203 VDD.n3634 VDD.n3633 185
R204 VDD.n3635 VDD.n3634 185
R205 VDD.n3632 VDD.n305 185
R206 VDD.n305 VDD.n302 185
R207 VDD.n3631 VDD.n3630 185
R208 VDD.n3630 VDD.n3629 185
R209 VDD.n307 VDD.n306 185
R210 VDD.n308 VDD.n307 185
R211 VDD.n3622 VDD.n3621 185
R212 VDD.n3623 VDD.n3622 185
R213 VDD.n3620 VDD.n317 185
R214 VDD.n317 VDD.n314 185
R215 VDD.n3619 VDD.n3618 185
R216 VDD.n3618 VDD.n3617 185
R217 VDD.n319 VDD.n318 185
R218 VDD.n320 VDD.n319 185
R219 VDD.n3610 VDD.n3609 185
R220 VDD.n3611 VDD.n3610 185
R221 VDD.n3608 VDD.n329 185
R222 VDD.n329 VDD.n326 185
R223 VDD.n3607 VDD.n3606 185
R224 VDD.n3606 VDD.n3605 185
R225 VDD.n331 VDD.n330 185
R226 VDD.n340 VDD.n331 185
R227 VDD.n3598 VDD.n3597 185
R228 VDD.n3599 VDD.n3598 185
R229 VDD.n3596 VDD.n341 185
R230 VDD.n341 VDD.n337 185
R231 VDD.n3595 VDD.n3594 185
R232 VDD.n3594 VDD.n3593 185
R233 VDD.n343 VDD.n342 185
R234 VDD.n344 VDD.n343 185
R235 VDD.n3586 VDD.n3585 185
R236 VDD.n3587 VDD.n3586 185
R237 VDD.n3584 VDD.n353 185
R238 VDD.n353 VDD.n350 185
R239 VDD.n3583 VDD.n3582 185
R240 VDD.n3582 VDD.n3581 185
R241 VDD.n355 VDD.n354 185
R242 VDD.n356 VDD.n355 185
R243 VDD.n3574 VDD.n3573 185
R244 VDD.n3575 VDD.n3574 185
R245 VDD.n3572 VDD.n365 185
R246 VDD.n365 VDD.n362 185
R247 VDD.n3571 VDD.n3570 185
R248 VDD.n3570 VDD.n3569 185
R249 VDD.n367 VDD.n366 185
R250 VDD.n368 VDD.n367 185
R251 VDD.n3562 VDD.n3561 185
R252 VDD.n3563 VDD.n3562 185
R253 VDD.n3560 VDD.n377 185
R254 VDD.n377 VDD.n374 185
R255 VDD.n3559 VDD.n3558 185
R256 VDD.n3558 VDD.n3557 185
R257 VDD.n379 VDD.n378 185
R258 VDD.n380 VDD.n379 185
R259 VDD.n3550 VDD.n3549 185
R260 VDD.n3551 VDD.n3550 185
R261 VDD.n3548 VDD.n389 185
R262 VDD.n389 VDD.n386 185
R263 VDD.n3547 VDD.n3546 185
R264 VDD.n3546 VDD.n3545 185
R265 VDD.n391 VDD.n390 185
R266 VDD.n392 VDD.n391 185
R267 VDD.n3538 VDD.n3537 185
R268 VDD.n3539 VDD.n3538 185
R269 VDD.n3536 VDD.n401 185
R270 VDD.n401 VDD.n398 185
R271 VDD.n3535 VDD.n3534 185
R272 VDD.n3534 VDD.n3533 185
R273 VDD.n403 VDD.n402 185
R274 VDD.n404 VDD.n403 185
R275 VDD.n3526 VDD.n3525 185
R276 VDD.n3527 VDD.n3526 185
R277 VDD.n3524 VDD.n412 185
R278 VDD.n418 VDD.n412 185
R279 VDD.n3523 VDD.n3522 185
R280 VDD.n3522 VDD.n3521 185
R281 VDD.n414 VDD.n413 185
R282 VDD.n415 VDD.n414 185
R283 VDD.n3514 VDD.n3513 185
R284 VDD.n3515 VDD.n3514 185
R285 VDD.n3512 VDD.n425 185
R286 VDD.n425 VDD.n422 185
R287 VDD.n3511 VDD.n3510 185
R288 VDD.n3510 VDD.n3509 185
R289 VDD.n427 VDD.n426 185
R290 VDD.n428 VDD.n427 185
R291 VDD.n3502 VDD.n3501 185
R292 VDD.n3503 VDD.n3502 185
R293 VDD.n3500 VDD.n437 185
R294 VDD.n437 VDD.n434 185
R295 VDD.n3499 VDD.n3498 185
R296 VDD.n3498 VDD.n3497 185
R297 VDD.n439 VDD.n438 185
R298 VDD.n440 VDD.n439 185
R299 VDD.n3490 VDD.n3489 185
R300 VDD.n3491 VDD.n3490 185
R301 VDD.n3488 VDD.n449 185