* NGSPICE file created from opamp_sample_0001.ext - technology: sky130A

.subckt opamp_sample_0001 GND VOUT VDD VN VP CS_BIAS DIFFPAIR_BIAS
X0 GND.t129 GND.t127 GND.t128 GND.t12 sky130_fd_pr__nfet_01v8 ad=1.6263 pd=9.12 as=0 ps=0 w=4.17 l=2.04
X1 VDD.t174 a_n14320_7092.t8 VOUT.t5 VDD.t135 sky130_fd_pr__pfet_01v8 ad=0.9555 pd=5.68 as=0.40425 ps=2.78 w=2.45 l=5.22
X2 VDD.t1 a_n6573_8708.t22 a_n6651_8904.t7 VDD.t0 sky130_fd_pr__pfet_01v8 ad=0.8415 pd=5.43 as=1.989 ps=10.98 w=5.1 l=3.3
X3 VOUT.t48 a_n5180_7124.t0 sky130_fd_pr__cap_mim_m3_1 l=7.69 w=9.42
X4 a_n6651_8904.t17 a_n6573_8708.t2 a_n6573_8708.t3 VDD.t18 sky130_fd_pr__pfet_01v8 ad=0.8415 pd=5.43 as=1.989 ps=10.98 w=5.1 l=3.3
X5 GND.t126 GND.t124 GND.t125 GND.t32 sky130_fd_pr__nfet_01v8 ad=1.6263 pd=9.12 as=0 ps=0 w=4.17 l=2.04
X6 VN.t5 GND.t121 GND.t123 GND.t122 sky130_fd_pr__nfet_01v8 ad=0.165 pd=1.33 as=0.165 ps=1.33 w=1 l=0.5
X7 GND.t120 GND.t118 GND.t119 GND.t52 sky130_fd_pr__nfet_01v8 ad=1.6263 pd=9.12 as=0 ps=0 w=4.17 l=2.04
X8 a_n14320_7092.t1 a_n6573_8708.t23 a_n5180_7124.t18 VDD.t5 sky130_fd_pr__pfet_01v8 ad=0.8415 pd=5.43 as=0.8415 ps=5.43 w=5.1 l=3.3
X9 VOUT.t4 a_n14320_7092.t9 VDD.t173 VDD.t141 sky130_fd_pr__pfet_01v8 ad=0.40425 pd=2.78 as=0.9555 ps=5.68 w=2.45 l=5.22
X10 VDD.t172 a_n14320_7092.t10 VOUT.t35 VDD.t148 sky130_fd_pr__pfet_01v8 ad=0.40425 pd=2.78 as=0.40425 ps=2.78 w=2.45 l=5.22
X11 VDD.t8 a_n6573_8708.t24 a_n6651_8904.t6 VDD.t7 sky130_fd_pr__pfet_01v8 ad=0.8415 pd=5.43 as=0.8415 ps=5.43 w=5.1 l=3.3
X12 VOUT.t34 a_n14320_7092.t11 VDD.t171 VDD.t131 sky130_fd_pr__pfet_01v8 ad=0.40425 pd=2.78 as=0.9555 ps=5.68 w=2.45 l=5.22
X13 GND.t117 GND.t115 GND.t116 GND.t16 sky130_fd_pr__nfet_01v8 ad=1.6263 pd=9.12 as=0 ps=0 w=4.17 l=2.04
X14 a_n874_n120.t4 DIFFPAIR_BIAS.t6 a_n1379_n2440.t0 GND.t134 sky130_fd_pr__nfet_01v8 ad=1.5522 pd=8.74 as=1.5522 ps=8.74 w=3.98 l=2.27
X15 GND.t114 GND.t112 GND.t113 GND.t16 sky130_fd_pr__nfet_01v8 ad=1.6263 pd=9.12 as=0 ps=0 w=4.17 l=2.04
X16 VOUT.t47 CS_BIAS.t4 GND.t140 GND.t1 sky130_fd_pr__nfet_01v8 ad=1.6263 pd=9.12 as=1.6263 ps=9.12 w=4.17 l=2.04
X17 VOUT.t46 CS_BIAS.t5 GND.t139 GND.t130 sky130_fd_pr__nfet_01v8 ad=1.6263 pd=9.12 as=1.6263 ps=9.12 w=4.17 l=2.04
X18 VDD.t124 VDD.t122 VDD.t123 VDD.t113 sky130_fd_pr__pfet_01v8 ad=1.989 pd=10.98 as=0 ps=0 w=5.1 l=3.3
X19 a_n6651_8904.t5 a_n6573_8708.t25 VDD.t28 VDD.t27 sky130_fd_pr__pfet_01v8 ad=0.8415 pd=5.43 as=0.8415 ps=5.43 w=5.1 l=3.3
X20 GND.t111 GND.t109 GND.t110 GND.t52 sky130_fd_pr__nfet_01v8 ad=1.6263 pd=9.12 as=0 ps=0 w=4.17 l=2.04
X21 VDD.t170 a_n14320_7092.t12 VOUT.t33 VDD.t138 sky130_fd_pr__pfet_01v8 ad=0.40425 pd=2.78 as=0.40425 ps=2.78 w=2.45 l=5.22
X22 VDD.t121 VDD.t119 VDD.t120 VDD.t42 sky130_fd_pr__pfet_01v8 ad=0.9555 pd=5.68 as=0 ps=0 w=2.45 l=5.22
X23 VDD.t118 VDD.t116 VDD.t117 VDD.t81 sky130_fd_pr__pfet_01v8 ad=1.989 pd=10.98 as=0 ps=0 w=5.1 l=3.3
X24 VOUT.t9 a_n14320_7092.t13 VDD.t169 VDD.t143 sky130_fd_pr__pfet_01v8 ad=0.40425 pd=2.78 as=0.40425 ps=2.78 w=2.45 l=5.22
X25 VOUT.t8 a_n14320_7092.t14 VDD.t168 VDD.t143 sky130_fd_pr__pfet_01v8 ad=0.40425 pd=2.78 as=0.40425 ps=2.78 w=2.45 l=5.22
X26 a_n6573_8708.t13 a_n6573_8708.t12 a_n6651_8904.t16 VDD.t12 sky130_fd_pr__pfet_01v8 ad=0.8415 pd=5.43 as=0.8415 ps=5.43 w=5.1 l=3.3
X27 VN.t4 GND.t106 GND.t108 GND.t107 sky130_fd_pr__nfet_01v8 ad=0.165 pd=1.33 as=0.165 ps=1.33 w=1 l=0.5
X28 VP.t5 GND.t103 GND.t105 GND.t104 sky130_fd_pr__nfet_01v8 ad=0.39 pd=2.78 as=0.165 ps=1.33 w=1 l=0.5
X29 GND.t102 GND.t100 GND.t101 GND.t32 sky130_fd_pr__nfet_01v8 ad=1.6263 pd=9.12 as=0 ps=0 w=4.17 l=2.04
X30 a_n874_n120.t3 DIFFPAIR_BIAS.t7 a_n1379_n2440.t2 GND.t4 sky130_fd_pr__nfet_01v8 ad=1.5522 pd=8.74 as=1.5522 ps=8.74 w=3.98 l=2.27
X31 VOUT.t7 a_n14320_7092.t15 VDD.t167 VDD.t141 sky130_fd_pr__pfet_01v8 ad=0.40425 pd=2.78 as=0.9555 ps=5.68 w=2.45 l=5.22
X32 VDD.t166 a_n14320_7092.t16 VOUT.t15 VDD.t129 sky130_fd_pr__pfet_01v8 ad=0.9555 pd=5.68 as=0.40425 ps=2.78 w=2.45 l=5.22
X33 GND.t99 GND.t97 GND.t98 GND.t16 sky130_fd_pr__nfet_01v8 ad=1.6263 pd=9.12 as=0 ps=0 w=4.17 l=2.04
X34 a_n6651_8904.t4 a_n6573_8708.t26 VDD.t126 VDD.t125 sky130_fd_pr__pfet_01v8 ad=1.989 pd=10.98 as=0.8415 ps=5.43 w=5.1 l=3.3
X35 GND.t96 GND.t94 GND.t95 GND.t12 sky130_fd_pr__nfet_01v8 ad=1.6263 pd=9.12 as=0 ps=0 w=4.17 l=2.04
X36 a_n6651_8904.t15 a_n6573_8708.t8 a_n6573_8708.t9 VDD.t13 sky130_fd_pr__pfet_01v8 ad=0.8415 pd=5.43 as=0.8415 ps=5.43 w=5.1 l=3.3
X37 VDD.t165 a_n14320_7092.t17 VOUT.t14 VDD.t135 sky130_fd_pr__pfet_01v8 ad=0.9555 pd=5.68 as=0.40425 ps=2.78 w=2.45 l=5.22
X38 a_n6651_8904.t14 a_n6573_8708.t6 a_n6573_8708.t7 VDD.t4 sky130_fd_pr__pfet_01v8 ad=0.8415 pd=5.43 as=1.989 ps=10.98 w=5.1 l=3.3
X39 a_n6651_8904.t13 a_n6573_8708.t4 a_n6573_8708.t5 VDD.t20 sky130_fd_pr__pfet_01v8 ad=1.989 pd=10.98 as=0.8415 ps=5.43 w=5.1 l=3.3
X40 VDD.t179 a_n6573_8708.t27 a_n5180_7124.t8 VDD.t178 sky130_fd_pr__pfet_01v8 ad=0.8415 pd=5.43 as=1.989 ps=10.98 w=5.1 l=3.3
X41 VOUT.t45 CS_BIAS.t6 GND.t138 GND.t1 sky130_fd_pr__nfet_01v8 ad=1.6263 pd=9.12 as=1.6263 ps=9.12 w=4.17 l=2.04
X42 a_n6651_8904.t3 a_n6573_8708.t28 VDD.t32 VDD.t31 sky130_fd_pr__pfet_01v8 ad=0.8415 pd=5.43 as=0.8415 ps=5.43 w=5.1 l=3.3
X43 a_n14320_7092.t7 VN.t6 a_n874_n120.t6 GND.t133 sky130_fd_pr__nfet_01v8 ad=1.0647 pd=6.24 as=1.0647 ps=6.24 w=2.73 l=3.27
X44 VDD.t115 VDD.t112 VDD.t114 VDD.t113 sky130_fd_pr__pfet_01v8 ad=1.989 pd=10.98 as=0 ps=0 w=5.1 l=3.3
X45 VP.t4 GND.t91 GND.t93 GND.t92 sky130_fd_pr__nfet_01v8 ad=0.165 pd=1.33 as=0.165 ps=1.33 w=1 l=0.5
X46 VDD.t164 a_n14320_7092.t18 VOUT.t13 VDD.t148 sky130_fd_pr__pfet_01v8 ad=0.40425 pd=2.78 as=0.40425 ps=2.78 w=2.45 l=5.22
X47 VDD.t163 a_n14320_7092.t19 VOUT.t22 VDD.t138 sky130_fd_pr__pfet_01v8 ad=0.40425 pd=2.78 as=0.40425 ps=2.78 w=2.45 l=5.22
X48 VDD.t111 VDD.t109 VDD.t110 VDD.t42 sky130_fd_pr__pfet_01v8 ad=0.9555 pd=5.68 as=0 ps=0 w=2.45 l=5.22
X49 GND.t90 GND.t87 GND.t89 GND.t88 sky130_fd_pr__nfet_01v8 ad=1.5522 pd=8.74 as=0 ps=0 w=3.98 l=2.27
X50 VOUT.t0 CS_BIAS.t7 GND.t2 GND.t1 sky130_fd_pr__nfet_01v8 ad=1.6263 pd=9.12 as=1.6263 ps=9.12 w=4.17 l=2.04
X51 VP.t3 GND.t84 GND.t86 GND.t85 sky130_fd_pr__nfet_01v8 ad=0.165 pd=1.33 as=0.165 ps=1.33 w=1 l=0.5
X52 DIFFPAIR_BIAS.t3 DIFFPAIR_BIAS.t2 a_n2095_n2440.t2 GND.t0 sky130_fd_pr__nfet_01v8 ad=1.5522 pd=8.74 as=1.5522 ps=8.74 w=3.98 l=2.27
X53 a_n6651_8904.t12 a_n6573_8708.t18 a_n6573_8708.t19 VDD.t177 sky130_fd_pr__pfet_01v8 ad=1.989 pd=10.98 as=0.8415 ps=5.43 w=5.1 l=3.3
X54 a_n14320_7092.t0 a_n6573_8708.t29 a_n5180_7124.t17 VDD.t4 sky130_fd_pr__pfet_01v8 ad=0.8415 pd=5.43 as=1.989 ps=10.98 w=5.1 l=3.3
X55 VOUT.t49 a_n5180_7124.t0 sky130_fd_pr__cap_mim_m3_1 l=7.69 w=9.42
X56 VOUT.t21 a_n14320_7092.t20 VDD.t162 VDD.t127 sky130_fd_pr__pfet_01v8 ad=0.40425 pd=2.78 as=0.40425 ps=2.78 w=2.45 l=5.22
X57 GND.t83 GND.t81 GND.t82 GND.t52 sky130_fd_pr__nfet_01v8 ad=1.6263 pd=9.12 as=0 ps=0 w=4.17 l=2.04
X58 VDD.t161 a_n14320_7092.t21 VOUT.t20 VDD.t129 sky130_fd_pr__pfet_01v8 ad=0.9555 pd=5.68 as=0.40425 ps=2.78 w=2.45 l=5.22
X59 VDD.t108 VDD.t106 VDD.t107 VDD.t52 sky130_fd_pr__pfet_01v8 ad=0.9555 pd=5.68 as=0 ps=0 w=2.45 l=5.22
X60 GND.t80 GND.t78 GND.t79 GND.t32 sky130_fd_pr__nfet_01v8 ad=1.6263 pd=9.12 as=0 ps=0 w=4.17 l=2.04
X61 GND.t77 GND.t75 GND.t76 GND.t63 sky130_fd_pr__nfet_01v8 ad=1.0647 pd=6.24 as=0 ps=0 w=2.73 l=3.27
X62 VDD.t105 VDD.t103 VDD.t104 VDD.t34 sky130_fd_pr__pfet_01v8 ad=0.9555 pd=5.68 as=0 ps=0 w=2.45 l=5.22
X63 a_n14320_7092.t6 a_n6573_8708.t30 a_n5180_7124.t16 VDD.t177 sky130_fd_pr__pfet_01v8 ad=1.989 pd=10.98 as=0.8415 ps=5.43 w=5.1 l=3.3
X64 VDD.t102 VDD.t100 VDD.t101 VDD.t38 sky130_fd_pr__pfet_01v8 ad=0.9555 pd=5.68 as=0 ps=0 w=2.45 l=5.22
X65 GND.t74 GND.t72 GND.t73 GND.t56 sky130_fd_pr__nfet_01v8 ad=1.0647 pd=6.24 as=0 ps=0 w=2.73 l=3.27
X66 VOUT.t44 CS_BIAS.t8 GND.t137 GND.t130 sky130_fd_pr__nfet_01v8 ad=1.6263 pd=9.12 as=1.6263 ps=9.12 w=4.17 l=2.04
X67 VOUT.t28 a_n14320_7092.t22 VDD.t160 VDD.t141 sky130_fd_pr__pfet_01v8 ad=0.40425 pd=2.78 as=0.9555 ps=5.68 w=2.45 l=5.22
X68 VDD.t99 VDD.t97 VDD.t98 VDD.t42 sky130_fd_pr__pfet_01v8 ad=0.9555 pd=5.68 as=0 ps=0 w=2.45 l=5.22
X69 VDD.t96 VDD.t94 VDD.t95 VDD.t34 sky130_fd_pr__pfet_01v8 ad=0.9555 pd=5.68 as=0 ps=0 w=2.45 l=5.22
X70 a_n874_n120.t2 DIFFPAIR_BIAS.t8 a_n1379_n2440.t1 GND.t3 sky130_fd_pr__nfet_01v8 ad=1.5522 pd=8.74 as=1.5522 ps=8.74 w=3.98 l=2.27
X71 VDD.t93 VDD.t91 VDD.t92 VDD.t88 sky130_fd_pr__pfet_01v8 ad=1.989 pd=10.98 as=0 ps=0 w=5.1 l=3.3
X72 VDD.t90 VDD.t87 VDD.t89 VDD.t88 sky130_fd_pr__pfet_01v8 ad=1.989 pd=10.98 as=0 ps=0 w=5.1 l=3.3
X73 VOUT.t50 a_n5180_7124.t0 sky130_fd_pr__cap_mim_m3_1 l=7.69 w=9.42
X74 a_n6573_8708.t1 VP.t6 a_n874_n120.t1 GND.t7 sky130_fd_pr__nfet_01v8 ad=1.0647 pd=6.24 as=1.0647 ps=6.24 w=2.73 l=3.27
X75 a_n6573_8708.t0 VP.t7 a_n874_n120.t0 GND.t133 sky130_fd_pr__nfet_01v8 ad=1.0647 pd=6.24 as=1.0647 ps=6.24 w=2.73 l=3.27
X76 VOUT.t27 a_n14320_7092.t23 VDD.t159 VDD.t127 sky130_fd_pr__pfet_01v8 ad=0.40425 pd=2.78 as=0.40425 ps=2.78 w=2.45 l=5.22
X77 VDD.t86 VDD.t84 VDD.t85 VDD.t38 sky130_fd_pr__pfet_01v8 ad=0.9555 pd=5.68 as=0 ps=0 w=2.45 l=5.22
X78 CS_BIAS.t3 CS_BIAS.t2 GND.t6 GND.t1 sky130_fd_pr__nfet_01v8 ad=1.6263 pd=9.12 as=1.6263 ps=9.12 w=4.17 l=2.04
X79 a_n6651_8904.t11 a_n6573_8708.t16 a_n6573_8708.t17 VDD.t5 sky130_fd_pr__pfet_01v8 ad=0.8415 pd=5.43 as=0.8415 ps=5.43 w=5.1 l=3.3
X80 VDD.t83 VDD.t80 VDD.t82 VDD.t81 sky130_fd_pr__pfet_01v8 ad=1.989 pd=10.98 as=0 ps=0 w=5.1 l=3.3
X81 VDD.t158 a_n14320_7092.t24 VOUT.t26 VDD.t135 sky130_fd_pr__pfet_01v8 ad=0.9555 pd=5.68 as=0.40425 ps=2.78 w=2.45 l=5.22
X82 a_n6573_8708.t15 a_n6573_8708.t14 a_n6651_8904.t10 VDD.t9 sky130_fd_pr__pfet_01v8 ad=0.8415 pd=5.43 as=0.8415 ps=5.43 w=5.1 l=3.3
X83 VDD.t157 a_n14320_7092.t25 VOUT.t38 VDD.t148 sky130_fd_pr__pfet_01v8 ad=0.40425 pd=2.78 as=0.40425 ps=2.78 w=2.45 l=5.22
X84 GND.t71 GND.t69 VN.t3 GND.t70 sky130_fd_pr__nfet_01v8 ad=0.165 pd=1.33 as=0.165 ps=1.33 w=1 l=0.5
X85 VDD.t79 VDD.t77 VDD.t78 VDD.t52 sky130_fd_pr__pfet_01v8 ad=0.9555 pd=5.68 as=0 ps=0 w=2.45 l=5.22
X86 GND.t68 GND.t66 VP.t2 GND.t67 sky130_fd_pr__nfet_01v8 ad=0.165 pd=1.33 as=0.165 ps=1.33 w=1 l=0.5
X87 a_n6573_8708.t11 a_n6573_8708.t10 a_n6651_8904.t9 VDD.t19 sky130_fd_pr__pfet_01v8 ad=0.8415 pd=5.43 as=0.8415 ps=5.43 w=5.1 l=3.3
X88 VDD.t76 VDD.t74 VDD.t75 VDD.t34 sky130_fd_pr__pfet_01v8 ad=0.9555 pd=5.68 as=0 ps=0 w=2.45 l=5.22
X89 VDD.t17 a_n6573_8708.t31 a_n5180_7124.t7 VDD.t16 sky130_fd_pr__pfet_01v8 ad=0.8415 pd=5.43 as=1.989 ps=10.98 w=5.1 l=3.3
X90 VDD.t176 a_n6573_8708.t32 a_n5180_7124.t6 VDD.t175 sky130_fd_pr__pfet_01v8 ad=0.8415 pd=5.43 as=0.8415 ps=5.43 w=5.1 l=3.3
X91 DIFFPAIR_BIAS.t1 DIFFPAIR_BIAS.t0 a_n2095_n2440.t1 GND.t136 sky130_fd_pr__nfet_01v8 ad=1.5522 pd=8.74 as=1.5522 ps=8.74 w=3.98 l=2.27
X92 a_n14320_7092.t2 a_n6573_8708.t33 a_n5180_7124.t15 VDD.t13 sky130_fd_pr__pfet_01v8 ad=0.8415 pd=5.43 as=0.8415 ps=5.43 w=5.1 l=3.3
X93 GND.t65 GND.t62 GND.t64 GND.t63 sky130_fd_pr__nfet_01v8 ad=1.0647 pd=6.24 as=0 ps=0 w=2.73 l=3.27
X94 GND.t61 GND.t59 GND.t60 GND.t52 sky130_fd_pr__nfet_01v8 ad=1.6263 pd=9.12 as=0 ps=0 w=4.17 l=2.04
X95 a_n5180_7124.t14 a_n6573_8708.t34 a_n14320_7092.t1 VDD.t19 sky130_fd_pr__pfet_01v8 ad=0.8415 pd=5.43 as=0.8415 ps=5.43 w=5.1 l=3.3
X96 a_n14320_7092.t5 a_n6573_8708.t35 a_n5180_7124.t13 VDD.t20 sky130_fd_pr__pfet_01v8 ad=1.989 pd=10.98 as=0.8415 ps=5.43 w=5.1 l=3.3
X97 GND.t47 GND.t45 GND.t46 GND.t32 sky130_fd_pr__nfet_01v8 ad=1.6263 pd=9.12 as=0 ps=0 w=4.17 l=2.04
X98 GND.t58 GND.t55 GND.t57 GND.t56 sky130_fd_pr__nfet_01v8 ad=1.0647 pd=6.24 as=0 ps=0 w=2.73 l=3.27
X99 VOUT.t37 a_n14320_7092.t26 VDD.t156 VDD.t131 sky130_fd_pr__pfet_01v8 ad=0.40425 pd=2.78 as=0.9555 ps=5.68 w=2.45 l=5.22
X100 VOUT.t36 a_n14320_7092.t27 VDD.t155 VDD.t131 sky130_fd_pr__pfet_01v8 ad=0.40425 pd=2.78 as=0.9555 ps=5.68 w=2.45 l=5.22
X101 VDD.t154 a_n14320_7092.t28 VOUT.t12 VDD.t129 sky130_fd_pr__pfet_01v8 ad=0.9555 pd=5.68 as=0.40425 ps=2.78 w=2.45 l=5.22
X102 a_n6651_8904.t2 a_n6573_8708.t36 VDD.t15 VDD.t14 sky130_fd_pr__pfet_01v8 ad=1.989 pd=10.98 as=0.8415 ps=5.43 w=5.1 l=3.3
X103 a_n5180_7124.t5 a_n6573_8708.t37 VDD.t11 VDD.t10 sky130_fd_pr__pfet_01v8 ad=1.989 pd=10.98 as=0.8415 ps=5.43 w=5.1 l=3.3
X104 GND.t54 GND.t51 GND.t53 GND.t52 sky130_fd_pr__nfet_01v8 ad=1.6263 pd=9.12 as=0 ps=0 w=4.17 l=2.04
X105 VOUT.t11 a_n14320_7092.t29 VDD.t153 VDD.t143 sky130_fd_pr__pfet_01v8 ad=0.40425 pd=2.78 as=0.40425 ps=2.78 w=2.45 l=5.22
X106 VOUT.t51 a_n5180_7124.t0 sky130_fd_pr__cap_mim_m3_1 l=7.69 w=9.42
X107 GND.t50 GND.t48 VN.t2 GND.t49 sky130_fd_pr__nfet_01v8 ad=0.165 pd=1.33 as=0.165 ps=1.33 w=1 l=0.5
X108 VDD.t152 a_n14320_7092.t30 VOUT.t10 VDD.t148 sky130_fd_pr__pfet_01v8 ad=0.40425 pd=2.78 as=0.40425 ps=2.78 w=2.45 l=5.22
X109 a_6779_8904# a_6779_8904# a_6779_8904# VDD.t26 sky130_fd_pr__pfet_01v8 ad=1.989 pd=10.98 as=3.978 ps=21.96 w=5.1 l=3.3
X110 GND.t44 GND.t42 VP.t1 GND.t43 sky130_fd_pr__nfet_01v8 ad=0.165 pd=1.33 as=0.165 ps=1.33 w=1 l=0.5
X111 VOUT.t3 CS_BIAS.t9 GND.t135 GND.t1 sky130_fd_pr__nfet_01v8 ad=1.6263 pd=9.12 as=1.6263 ps=9.12 w=4.17 l=2.04
X112 GND.t41 GND.t38 GND.t40 GND.t39 sky130_fd_pr__nfet_01v8 ad=1.5522 pd=8.74 as=0 ps=0 w=3.98 l=2.27
X113 VOUT.t2 CS_BIAS.t10 GND.t132 GND.t130 sky130_fd_pr__nfet_01v8 ad=1.6263 pd=9.12 as=1.6263 ps=9.12 w=4.17 l=2.04
X114 a_n14320_7092.t4 VN.t7 a_n874_n120.t5 GND.t7 sky130_fd_pr__nfet_01v8 ad=1.0647 pd=6.24 as=1.0647 ps=6.24 w=2.73 l=3.27
X115 VDD.t151 a_n14320_7092.t31 VOUT.t18 VDD.t135 sky130_fd_pr__pfet_01v8 ad=0.9555 pd=5.68 as=0.40425 ps=2.78 w=2.45 l=5.22
X116 VDD.t30 a_n6573_8708.t38 a_n6651_8904.t1 VDD.t29 sky130_fd_pr__pfet_01v8 ad=0.8415 pd=5.43 as=0.8415 ps=5.43 w=5.1 l=3.3
X117 VOUT.t17 a_n14320_7092.t32 VDD.t150 VDD.t141 sky130_fd_pr__pfet_01v8 ad=0.40425 pd=2.78 as=0.9555 ps=5.68 w=2.45 l=5.22
X118 a_n5180_7124.t4 a_n6573_8708.t39 VDD.t183 VDD.t182 sky130_fd_pr__pfet_01v8 ad=1.989 pd=10.98 as=0.8415 ps=5.43 w=5.1 l=3.3
X119 GND.t37 GND.t35 VP.t0 GND.t36 sky130_fd_pr__nfet_01v8 ad=0.165 pd=1.33 as=0.39 ps=2.78 w=1 l=0.5
X120 VDD.t149 a_n14320_7092.t33 VOUT.t16 VDD.t148 sky130_fd_pr__pfet_01v8 ad=0.40425 pd=2.78 as=0.40425 ps=2.78 w=2.45 l=5.22
X121 VDD.t147 a_n14320_7092.t34 VOUT.t43 VDD.t138 sky130_fd_pr__pfet_01v8 ad=0.40425 pd=2.78 as=0.40425 ps=2.78 w=2.45 l=5.22
X122 GND.t34 GND.t31 GND.t33 GND.t32 sky130_fd_pr__nfet_01v8 ad=1.6263 pd=9.12 as=0 ps=0 w=4.17 l=2.04
X123 a_n7595_8904# a_n7595_8904# a_n7595_8904# VDD.t25 sky130_fd_pr__pfet_01v8 ad=1.989 pd=10.98 as=3.978 ps=21.96 w=5.1 l=3.3
X124 a_n5180_7124.t12 a_n6573_8708.t40 a_n14320_7092.t3 VDD.t6 sky130_fd_pr__pfet_01v8 ad=0.8415 pd=5.43 as=0.8415 ps=5.43 w=5.1 l=3.3
X125 GND.t30 GND.t28 GND.t29 GND.t16 sky130_fd_pr__nfet_01v8 ad=1.6263 pd=9.12 as=0 ps=0 w=4.17 l=2.04
X126 DIFFPAIR_BIAS.t5 DIFFPAIR_BIAS.t4 a_n2095_n2440.t0 GND.t5 sky130_fd_pr__nfet_01v8 ad=1.5522 pd=8.74 as=1.5522 ps=8.74 w=3.98 l=2.27
X127 GND.t27 GND.t25 GND.t26 GND.t12 sky130_fd_pr__nfet_01v8 ad=1.6263 pd=9.12 as=0 ps=0 w=4.17 l=2.04
X128 VOUT.t42 a_n14320_7092.t35 VDD.t146 VDD.t143 sky130_fd_pr__pfet_01v8 ad=0.40425 pd=2.78 as=0.40425 ps=2.78 w=2.45 l=5.22
X129 VDD.t73 VDD.t71 VDD.t72 VDD.t62 sky130_fd_pr__pfet_01v8 ad=1.989 pd=10.98 as=0 ps=0 w=5.1 l=3.3
X130 VDD.t145 a_n14320_7092.t36 VOUT.t30 VDD.t138 sky130_fd_pr__pfet_01v8 ad=0.40425 pd=2.78 as=0.40425 ps=2.78 w=2.45 l=5.22
X131 VDD.t70 VDD.t68 VDD.t69 VDD.t52 sky130_fd_pr__pfet_01v8 ad=0.9555 pd=5.68 as=0 ps=0 w=2.45 l=5.22
X132 VOUT.t52 a_n5180_7124.t0 sky130_fd_pr__cap_mim_m3_1 l=7.69 w=9.42
X133 GND.t24 GND.t22 VN.t1 GND.t23 sky130_fd_pr__nfet_01v8 ad=0.165 pd=1.33 as=0.39 ps=2.78 w=1 l=0.5
X134 VDD.t67 VDD.t65 VDD.t66 VDD.t42 sky130_fd_pr__pfet_01v8 ad=0.9555 pd=5.68 as=0 ps=0 w=2.45 l=5.22
X135 VOUT.t29 a_n14320_7092.t37 VDD.t144 VDD.t143 sky130_fd_pr__pfet_01v8 ad=0.40425 pd=2.78 as=0.40425 ps=2.78 w=2.45 l=5.22
X136 VOUT.t24 a_n14320_7092.t38 VDD.t142 VDD.t141 sky130_fd_pr__pfet_01v8 ad=0.40425 pd=2.78 as=0.9555 ps=5.68 w=2.45 l=5.22
X137 VOUT.t1 CS_BIAS.t11 GND.t131 GND.t130 sky130_fd_pr__nfet_01v8 ad=1.6263 pd=9.12 as=1.6263 ps=9.12 w=4.17 l=2.04
X138 a_n6573_8708.t21 a_n6573_8708.t20 a_n6651_8904.t8 VDD.t6 sky130_fd_pr__pfet_01v8 ad=0.8415 pd=5.43 as=0.8415 ps=5.43 w=5.1 l=3.3
X139 GND.t21 GND.t19 GND.t20 GND.t12 sky130_fd_pr__nfet_01v8 ad=1.6263 pd=9.12 as=0 ps=0 w=4.17 l=2.04
X140 VDD.t140 a_n14320_7092.t39 VOUT.t23 VDD.t129 sky130_fd_pr__pfet_01v8 ad=0.9555 pd=5.68 as=0.40425 ps=2.78 w=2.45 l=5.22
X141 a_n5180_7124.t11 a_n6573_8708.t41 a_n14320_7092.t0 VDD.t12 sky130_fd_pr__pfet_01v8 ad=0.8415 pd=5.43 as=0.8415 ps=5.43 w=5.1 l=3.3
X142 VDD.t24 a_n6573_8708.t42 a_n5180_7124.t3 VDD.t23 sky130_fd_pr__pfet_01v8 ad=0.8415 pd=5.43 as=0.8415 ps=5.43 w=5.1 l=3.3
X143 VDD.t64 VDD.t61 VDD.t63 VDD.t62 sky130_fd_pr__pfet_01v8 ad=1.989 pd=10.98 as=0 ps=0 w=5.1 l=3.3
X144 VDD.t139 a_n14320_7092.t40 VOUT.t19 VDD.t138 sky130_fd_pr__pfet_01v8 ad=0.40425 pd=2.78 as=0.40425 ps=2.78 w=2.45 l=5.22
X145 a_n5180_7124.t10 a_n6573_8708.t43 a_n14320_7092.t2 VDD.t9 sky130_fd_pr__pfet_01v8 ad=0.8415 pd=5.43 as=0.8415 ps=5.43 w=5.1 l=3.3
X146 VOUT.t40 a_n14320_7092.t41 VDD.t137 VDD.t127 sky130_fd_pr__pfet_01v8 ad=0.40425 pd=2.78 as=0.40425 ps=2.78 w=2.45 l=5.22
X147 VDD.t60 VDD.t58 VDD.t59 VDD.t38 sky130_fd_pr__pfet_01v8 ad=0.9555 pd=5.68 as=0 ps=0 w=2.45 l=5.22
X148 VDD.t136 a_n14320_7092.t42 VOUT.t39 VDD.t135 sky130_fd_pr__pfet_01v8 ad=0.9555 pd=5.68 as=0.40425 ps=2.78 w=2.45 l=5.22
X149 VDD.t57 VDD.t55 VDD.t56 VDD.t52 sky130_fd_pr__pfet_01v8 ad=0.9555 pd=5.68 as=0 ps=0 w=2.45 l=5.22
X150 VDD.t54 VDD.t51 VDD.t53 VDD.t52 sky130_fd_pr__pfet_01v8 ad=0.9555 pd=5.68 as=0 ps=0 w=2.45 l=5.22
X151 a_n5180_7124.t2 a_n6573_8708.t44 VDD.t3 VDD.t2 sky130_fd_pr__pfet_01v8 ad=0.8415 pd=5.43 as=0.8415 ps=5.43 w=5.1 l=3.3
X152 GND.t18 GND.t15 GND.t17 GND.t16 sky130_fd_pr__nfet_01v8 ad=1.6263 pd=9.12 as=0 ps=0 w=4.17 l=2.04
X153 VDD.t181 a_n6573_8708.t45 a_n6651_8904.t0 VDD.t180 sky130_fd_pr__pfet_01v8 ad=0.8415 pd=5.43 as=1.989 ps=10.98 w=5.1 l=3.3
X154 GND.t14 GND.t11 GND.t13 GND.t12 sky130_fd_pr__nfet_01v8 ad=1.6263 pd=9.12 as=0 ps=0 w=4.17 l=2.04
X155 VN.t0 GND.t8 GND.t10 GND.t9 sky130_fd_pr__nfet_01v8 ad=0.39 pd=2.78 as=0.165 ps=1.33 w=1 l=0.5
X156 VOUT.t32 a_n14320_7092.t43 VDD.t134 VDD.t127 sky130_fd_pr__pfet_01v8 ad=0.40425 pd=2.78 as=0.40425 ps=2.78 w=2.45 l=5.22
X157 VOUT.t31 a_n14320_7092.t44 VDD.t133 VDD.t131 sky130_fd_pr__pfet_01v8 ad=0.40425 pd=2.78 as=0.9555 ps=5.68 w=2.45 l=5.22
X158 VDD.t50 VDD.t48 VDD.t49 VDD.t34 sky130_fd_pr__pfet_01v8 ad=0.9555 pd=5.68 as=0 ps=0 w=2.45 l=5.22
X159 VOUT.t6 a_n14320_7092.t45 VDD.t132 VDD.t131 sky130_fd_pr__pfet_01v8 ad=0.40425 pd=2.78 as=0.9555 ps=5.68 w=2.45 l=5.22
X160 VDD.t47 VDD.t45 VDD.t46 VDD.t38 sky130_fd_pr__pfet_01v8 ad=0.9555 pd=5.68 as=0 ps=0 w=2.45 l=5.22
X161 VDD.t130 a_n14320_7092.t46 VOUT.t25 VDD.t129 sky130_fd_pr__pfet_01v8 ad=0.9555 pd=5.68 as=0.40425 ps=2.78 w=2.45 l=5.22
X162 VOUT.t41 a_n14320_7092.t47 VDD.t128 VDD.t127 sky130_fd_pr__pfet_01v8 ad=0.40425 pd=2.78 as=0.40425 ps=2.78 w=2.45 l=5.22
X163 a_n14320_7092.t3 a_n6573_8708.t46 a_n5180_7124.t9 VDD.t18 sky130_fd_pr__pfet_01v8 ad=0.8415 pd=5.43 as=1.989 ps=10.98 w=5.1 l=3.3
X164 VDD.t44 VDD.t41 VDD.t43 VDD.t42 sky130_fd_pr__pfet_01v8 ad=0.9555 pd=5.68 as=0 ps=0 w=2.45 l=5.22
X165 VDD.t40 VDD.t37 VDD.t39 VDD.t38 sky130_fd_pr__pfet_01v8 ad=0.9555 pd=5.68 as=0 ps=0 w=2.45 l=5.22
X166 VDD.t36 VDD.t33 VDD.t35 VDD.t34 sky130_fd_pr__pfet_01v8 ad=0.9555 pd=5.68 as=0 ps=0 w=2.45 l=5.22
X167 a_n5180_7124.t1 a_n6573_8708.t47 VDD.t22 VDD.t21 sky130_fd_pr__pfet_01v8 ad=0.8415 pd=5.43 as=0.8415 ps=5.43 w=5.1 l=3.3
X168 VOUT.t53 a_n5180_7124.t0 sky130_fd_pr__cap_mim_m3_1 l=7.69 w=9.42
X169 CS_BIAS.t1 CS_BIAS.t0 GND.t141 GND.t130 sky130_fd_pr__nfet_01v8 ad=1.6263 pd=9.12 as=1.6263 ps=9.12 w=4.17 l=2.04
R0 GND.n5117 GND.n5116 2197.03
R1 GND.n4204 GND.n4203 1258.16
R2 GND.n3289 GND.n55 857.672
R3 GND.n3318 GND.n60 857.672
R4 GND.n3232 GND.n2147 857.672
R5 GND.n3400 GND.n2149 857.672
R6 GND.n2536 GND.n1360 857.672
R7 GND.n2755 GND.n1358 857.672
R8 GND.n1535 GND.n1415 857.672
R9 GND.n2846 GND.n1412 857.672
R10 GND.n257 GND.n50 833.646
R11 GND.n5475 GND.n59 833.646
R12 GND.n3403 GND.n3402 833.646
R13 GND.n3498 GND.n1979 833.646
R14 GND.n3949 GND.n1417 833.646
R15 GND.n3951 GND.n1410 833.646
R16 GND.n2722 GND.n1357 833.646
R17 GND.n3986 GND.n1361 833.646
R18 GND.n3546 GND.n1899 718.33
R19 GND.n3511 GND.n3510 718.33
R20 GND.n3852 GND.n1541 718.33
R21 GND.n3848 GND.n1554 718.33
R22 GND.n4313 GND.n1028 701.513
R23 GND.n5118 GND.n548 701.513
R24 GND.n5260 GND.n465 701.513
R25 GND.n4201 GND.n1139 701.513
R26 GND.n4313 GND.n4312 585
R27 GND.n4314 GND.n4313 585
R28 GND.n4311 GND.n1030 585
R29 GND.n1030 GND.n1029 585
R30 GND.n4310 GND.n4309 585
R31 GND.n4309 GND.n4308 585
R32 GND.n1035 GND.n1034 585
R33 GND.n4307 GND.n1035 585
R34 GND.n4305 GND.n4304 585
R35 GND.n4306 GND.n4305 585
R36 GND.n4303 GND.n1037 585
R37 GND.n1037 GND.n1036 585
R38 GND.n4302 GND.n4301 585
R39 GND.n4301 GND.n4300 585
R40 GND.n1043 GND.n1042 585
R41 GND.n4299 GND.n1043 585
R42 GND.n4297 GND.n4296 585
R43 GND.n4298 GND.n4297 585
R44 GND.n4295 GND.n1045 585
R45 GND.n1045 GND.n1044 585
R46 GND.n4294 GND.n4293 585
R47 GND.n4293 GND.n4292 585
R48 GND.n1051 GND.n1050 585
R49 GND.n4291 GND.n1051 585
R50 GND.n4289 GND.n4288 585
R51 GND.n4290 GND.n4289 585
R52 GND.n4287 GND.n1053 585
R53 GND.n1053 GND.n1052 585
R54 GND.n4286 GND.n4285 585
R55 GND.n4285 GND.n4284 585
R56 GND.n1059 GND.n1058 585
R57 GND.n4283 GND.n1059 585
R58 GND.n4281 GND.n4280 585
R59 GND.n4282 GND.n4281 585
R60 GND.n4279 GND.n1061 585
R61 GND.n1061 GND.n1060 585
R62 GND.n4278 GND.n4277 585
R63 GND.n4277 GND.n4276 585
R64 GND.n1067 GND.n1066 585
R65 GND.n4275 GND.n1067 585
R66 GND.n4273 GND.n4272 585
R67 GND.n4274 GND.n4273 585
R68 GND.n4271 GND.n1069 585
R69 GND.n1069 GND.n1068 585
R70 GND.n4270 GND.n4269 585
R71 GND.n4269 GND.n4268 585
R72 GND.n1075 GND.n1074 585
R73 GND.n4267 GND.n1075 585
R74 GND.n4265 GND.n4264 585
R75 GND.n4266 GND.n4265 585
R76 GND.n4263 GND.n1077 585
R77 GND.n1077 GND.n1076 585
R78 GND.n4262 GND.n4261 585
R79 GND.n4261 GND.n4260 585
R80 GND.n1083 GND.n1082 585
R81 GND.n4259 GND.n1083 585
R82 GND.n4257 GND.n4256 585
R83 GND.n4258 GND.n4257 585
R84 GND.n4255 GND.n1085 585
R85 GND.n1085 GND.n1084 585
R86 GND.n4254 GND.n4253 585
R87 GND.n4253 GND.n4252 585
R88 GND.n1091 GND.n1090 585
R89 GND.n4251 GND.n1091 585
R90 GND.n4249 GND.n4248 585
R91 GND.n4250 GND.n4249 585
R92 GND.n4247 GND.n1093 585
R93 GND.n1093 GND.n1092 585
R94 GND.n4246 GND.n4245 585
R95 GND.n4245 GND.n4244 585
R96 GND.n1099 GND.n1098 585
R97 GND.n4243 GND.n1099 585
R98 GND.n4241 GND.n4240 585
R99 GND.n4242 GND.n4241 585
R100 GND.n4239 GND.n1101 585
R101 GND.n1101 GND.n1100 585
R102 GND.n4238 GND.n4237 585
R103 GND.n4237 GND.n4236 585
R104 GND.n1107 GND.n1106 585
R105 GND.n4235 GND.n1107 585
R106 GND.n4233 GND.n4232 585
R107 GND.n4234 GND.n4233 585
R108 GND.n4231 GND.n1109 585
R109 GND.n1109 GND.n1108 585
R110 GND.n4230 GND.n4229 585
R111 GND.n4229 GND.n4228 585
R112 GND.n1115 GND.n1114 585
R113 GND.n4227 GND.n1115 585
R114 GND.n4225 GND.n4224 585
R115 GND.n4226 GND.n4225 585
R116 GND.n4223 GND.n1117 585
R117 GND.n1117 GND.n1116 585
R118 GND.n4222 GND.n4221 585
R119 GND.n4221 GND.n4220 585
R120 GND.n1123 GND.n1122 585
R121 GND.n4219 GND.n1123 585
R122 GND.n4217 GND.n4216 585
R123 GND.n4218 GND.n4217 585
R124 GND.n4215 GND.n1125 585
R125 GND.n1125 GND.n1124 585
R126 GND.n4214 GND.n4213 585
R127 GND.n4213 GND.n4212 585
R128 GND.n1131 GND.n1130 585
R129 GND.n4211 GND.n1131 585
R130 GND.n4209 GND.n4208 585
R131 GND.n4210 GND.n4209 585
R132 GND.n4207 GND.n1133 585
R133 GND.n1133 GND.n1132 585
R134 GND.n4206 GND.n4205 585
R135 GND.n4205 GND.n4204 585
R136 GND.n1028 GND.n1027 585
R137 GND.n4315 GND.n1028 585
R138 GND.n4318 GND.n4317 585
R139 GND.n4317 GND.n4316 585
R140 GND.n1025 GND.n1024 585
R141 GND.n1024 GND.n1023 585
R142 GND.n4323 GND.n4322 585
R143 GND.n4324 GND.n4323 585
R144 GND.n1022 GND.n1021 585
R145 GND.n4325 GND.n1022 585
R146 GND.n4328 GND.n4327 585
R147 GND.n4327 GND.n4326 585
R148 GND.n1019 GND.n1018 585
R149 GND.n1018 GND.n1017 585
R150 GND.n4333 GND.n4332 585
R151 GND.n4334 GND.n4333 585
R152 GND.n1016 GND.n1015 585
R153 GND.n4335 GND.n1016 585
R154 GND.n4338 GND.n4337 585
R155 GND.n4337 GND.n4336 585
R156 GND.n1013 GND.n1012 585
R157 GND.n1012 GND.n1011 585
R158 GND.n4343 GND.n4342 585
R159 GND.n4344 GND.n4343 585
R160 GND.n1010 GND.n1009 585
R161 GND.n4345 GND.n1010 585
R162 GND.n4348 GND.n4347 585
R163 GND.n4347 GND.n4346 585
R164 GND.n1007 GND.n1006 585
R165 GND.n1006 GND.n1005 585
R166 GND.n4353 GND.n4352 585
R167 GND.n4354 GND.n4353 585
R168 GND.n1004 GND.n1003 585
R169 GND.n4355 GND.n1004 585
R170 GND.n4358 GND.n4357 585
R171 GND.n4357 GND.n4356 585
R172 GND.n1001 GND.n1000 585
R173 GND.n1000 GND.n999 585
R174 GND.n4363 GND.n4362 585
R175 GND.n4364 GND.n4363 585
R176 GND.n998 GND.n997 585
R177 GND.n4365 GND.n998 585
R178 GND.n4368 GND.n4367 585
R179 GND.n4367 GND.n4366 585
R180 GND.n995 GND.n994 585
R181 GND.n994 GND.n993 585
R182 GND.n4373 GND.n4372 585
R183 GND.n4374 GND.n4373 585
R184 GND.n992 GND.n991 585
R185 GND.n4375 GND.n992 585
R186 GND.n4378 GND.n4377 585
R187 GND.n4377 GND.n4376 585
R188 GND.n989 GND.n988 585
R189 GND.n988 GND.n987 585
R190 GND.n4383 GND.n4382 585
R191 GND.n4384 GND.n4383 585
R192 GND.n986 GND.n985 585
R193 GND.n4385 GND.n986 585
R194 GND.n4388 GND.n4387 585
R195 GND.n4387 GND.n4386 585
R196 GND.n983 GND.n982 585
R197 GND.n982 GND.n981 585
R198 GND.n4393 GND.n4392 585
R199 GND.n4394 GND.n4393 585
R200 GND.n980 GND.n979 585
R201 GND.n4395 GND.n980 585
R202 GND.n4398 GND.n4397 585
R203 GND.n4397 GND.n4396 585
R204 GND.n977 GND.n976 585
R205 GND.n976 GND.n975 585
R206 GND.n4403 GND.n4402 585
R207 GND.n4404 GND.n4403 585
R208 GND.n974 GND.n973 585
R209 GND.n4405 GND.n974 585
R210 GND.n4408 GND.n4407 585
R211 GND.n4407 GND.n4406 585
R212 GND.n971 GND.n970 585
R213 GND.n970 GND.n969 585
R214 GND.n4413 GND.n4412 585
R215 GND.n4414 GND.n4413 585
R216 GND.n968 GND.n967 585
R217 GND.n4415 GND.n968 585
R218 GND.n4418 GND.n4417 585
R219 GND.n4417 GND.n4416 585
R220 GND.n965 GND.n964 585
R221 GND.n964 GND.n963 585
R222 GND.n4423 GND.n4422 585
R223 GND.n4424 GND.n4423 585
R224 GND.n962 GND.n961 585
R225 GND.n4425 GND.n962 585
R226 GND.n4428 GND.n4427 585
R227 GND.n4427 GND.n4426 585
R228 GND.n959 GND.n958 585
R229 GND.n958 GND.n957 585
R230 GND.n4433 GND.n4432 585
R231 GND.n4434 GND.n4433 585
R232 GND.n956 GND.n955 585
R233 GND.n4435 GND.n956 585
R234 GND.n4438 GND.n4437 585
R235 GND.n4437 GND.n4436 585
R236 GND.n953 GND.n952 585
R237 GND.n952 GND.n951 585
R238 GND.n4443 GND.n4442 585
R239 GND.n4444 GND.n4443 585
R240 GND.n950 GND.n949 585
R241 GND.n4445 GND.n950 585
R242 GND.n4448 GND.n4447 585
R243 GND.n4447 GND.n4446 585
R244 GND.n947 GND.n946 585
R245 GND.n946 GND.n945 585
R246 GND.n4453 GND.n4452 585
R247 GND.n4454 GND.n4453 585
R248 GND.n944 GND.n943 585
R249 GND.n4455 GND.n944 585
R250 GND.n4458 GND.n4457 585
R251 GND.n4457 GND.n4456 585
R252 GND.n941 GND.n940 585
R253 GND.n940 GND.n939 585
R254 GND.n4463 GND.n4462 585
R255 GND.n4464 GND.n4463 585
R256 GND.n938 GND.n937 585
R257 GND.n4465 GND.n938 585
R258 GND.n4468 GND.n4467 585
R259 GND.n4467 GND.n4466 585
R260 GND.n935 GND.n934 585
R261 GND.n934 GND.n933 585
R262 GND.n4473 GND.n4472 585
R263 GND.n4474 GND.n4473 585
R264 GND.n932 GND.n931 585
R265 GND.n4475 GND.n932 585
R266 GND.n4478 GND.n4477 585
R267 GND.n4477 GND.n4476 585
R268 GND.n929 GND.n928 585
R269 GND.n928 GND.n927 585
R270 GND.n4483 GND.n4482 585
R271 GND.n4484 GND.n4483 585
R272 GND.n926 GND.n925 585
R273 GND.n4485 GND.n926 585
R274 GND.n4488 GND.n4487 585
R275 GND.n4487 GND.n4486 585
R276 GND.n923 GND.n922 585
R277 GND.n922 GND.n921 585
R278 GND.n4493 GND.n4492 585
R279 GND.n4494 GND.n4493 585
R280 GND.n920 GND.n919 585
R281 GND.n4495 GND.n920 585
R282 GND.n4498 GND.n4497 585
R283 GND.n4497 GND.n4496 585
R284 GND.n917 GND.n916 585
R285 GND.n916 GND.n915 585
R286 GND.n4503 GND.n4502 585
R287 GND.n4504 GND.n4503 585
R288 GND.n914 GND.n913 585
R289 GND.n4505 GND.n914 585
R290 GND.n4508 GND.n4507 585
R291 GND.n4507 GND.n4506 585
R292 GND.n911 GND.n910 585
R293 GND.n910 GND.n909 585
R294 GND.n4513 GND.n4512 585
R295 GND.n4514 GND.n4513 585
R296 GND.n908 GND.n907 585
R297 GND.n4515 GND.n908 585
R298 GND.n4518 GND.n4517 585
R299 GND.n4517 GND.n4516 585
R300 GND.n905 GND.n904 585
R301 GND.n904 GND.n903 585
R302 GND.n4523 GND.n4522 585
R303 GND.n4524 GND.n4523 585
R304 GND.n902 GND.n901 585
R305 GND.n4525 GND.n902 585
R306 GND.n4528 GND.n4527 585
R307 GND.n4527 GND.n4526 585
R308 GND.n899 GND.n898 585
R309 GND.n898 GND.n897 585
R310 GND.n4533 GND.n4532 585
R311 GND.n4534 GND.n4533 585
R312 GND.n896 GND.n895 585
R313 GND.n4535 GND.n896 585
R314 GND.n4538 GND.n4537 585
R315 GND.n4537 GND.n4536 585
R316 GND.n893 GND.n892 585
R317 GND.n892 GND.n891 585
R318 GND.n4543 GND.n4542 585
R319 GND.n4544 GND.n4543 585
R320 GND.n890 GND.n889 585
R321 GND.n4545 GND.n890 585
R322 GND.n4548 GND.n4547 585
R323 GND.n4547 GND.n4546 585
R324 GND.n887 GND.n886 585
R325 GND.n886 GND.n885 585
R326 GND.n4553 GND.n4552 585
R327 GND.n4554 GND.n4553 585
R328 GND.n884 GND.n883 585
R329 GND.n4555 GND.n884 585
R330 GND.n4558 GND.n4557 585
R331 GND.n4557 GND.n4556 585
R332 GND.n881 GND.n880 585
R333 GND.n880 GND.n879 585
R334 GND.n4563 GND.n4562 585
R335 GND.n4564 GND.n4563 585
R336 GND.n878 GND.n877 585
R337 GND.n4565 GND.n878 585
R338 GND.n4568 GND.n4567 585
R339 GND.n4567 GND.n4566 585
R340 GND.n875 GND.n874 585
R341 GND.n874 GND.n873 585
R342 GND.n4573 GND.n4572 585
R343 GND.n4574 GND.n4573 585
R344 GND.n872 GND.n871 585
R345 GND.n4575 GND.n872 585
R346 GND.n4578 GND.n4577 585
R347 GND.n4577 GND.n4576 585
R348 GND.n869 GND.n868 585
R349 GND.n868 GND.n867 585
R350 GND.n4583 GND.n4582 585
R351 GND.n4584 GND.n4583 585
R352 GND.n866 GND.n865 585
R353 GND.n4585 GND.n866 585
R354 GND.n4588 GND.n4587 585
R355 GND.n4587 GND.n4586 585
R356 GND.n863 GND.n862 585
R357 GND.n862 GND.n861 585
R358 GND.n4593 GND.n4592 585