* NGSPICE file created from diff_pair_sample_1296.ext - technology: sky130A

.subckt diff_pair_sample_1296 VTAIL VN VP B VDD2 VDD1
X0 B.t19 B.t17 B.t18 B.t11 sky130_fd_pr__nfet_01v8 ad=2.5935 pd=14.08 as=0 ps=0 w=6.65 l=2.75
X1 VDD1.t5 VP.t0 VTAIL.t10 B.t1 sky130_fd_pr__nfet_01v8 ad=1.09725 pd=6.98 as=2.5935 ps=14.08 w=6.65 l=2.75
X2 B.t16 B.t14 B.t15 B.t7 sky130_fd_pr__nfet_01v8 ad=2.5935 pd=14.08 as=0 ps=0 w=6.65 l=2.75
X3 B.t13 B.t10 B.t12 B.t11 sky130_fd_pr__nfet_01v8 ad=2.5935 pd=14.08 as=0 ps=0 w=6.65 l=2.75
X4 VTAIL.t2 VN.t0 VDD2.t5 B.t2 sky130_fd_pr__nfet_01v8 ad=1.09725 pd=6.98 as=1.09725 ps=6.98 w=6.65 l=2.75
X5 VTAIL.t11 VP.t1 VDD1.t4 B.t3 sky130_fd_pr__nfet_01v8 ad=1.09725 pd=6.98 as=1.09725 ps=6.98 w=6.65 l=2.75
X6 VDD1.t3 VP.t2 VTAIL.t9 B.t5 sky130_fd_pr__nfet_01v8 ad=2.5935 pd=14.08 as=1.09725 ps=6.98 w=6.65 l=2.75
X7 VDD2.t4 VN.t1 VTAIL.t0 B.t0 sky130_fd_pr__nfet_01v8 ad=1.09725 pd=6.98 as=2.5935 ps=14.08 w=6.65 l=2.75
X8 VDD2.t3 VN.t2 VTAIL.t1 B.t1 sky130_fd_pr__nfet_01v8 ad=1.09725 pd=6.98 as=2.5935 ps=14.08 w=6.65 l=2.75
X9 VTAIL.t4 VN.t3 VDD2.t2 B.t3 sky130_fd_pr__nfet_01v8 ad=1.09725 pd=6.98 as=1.09725 ps=6.98 w=6.65 l=2.75
X10 VDD2.t1 VN.t4 VTAIL.t5 B.t4 sky130_fd_pr__nfet_01v8 ad=2.5935 pd=14.08 as=1.09725 ps=6.98 w=6.65 l=2.75
X11 VDD2.t0 VN.t5 VTAIL.t3 B.t5 sky130_fd_pr__nfet_01v8 ad=2.5935 pd=14.08 as=1.09725 ps=6.98 w=6.65 l=2.75
X12 VDD1.t2 VP.t3 VTAIL.t7 B.t4 sky130_fd_pr__nfet_01v8 ad=2.5935 pd=14.08 as=1.09725 ps=6.98 w=6.65 l=2.75
X13 B.t9 B.t6 B.t8 B.t7 sky130_fd_pr__nfet_01v8 ad=2.5935 pd=14.08 as=0 ps=0 w=6.65 l=2.75
X14 VDD1.t1 VP.t4 VTAIL.t6 B.t0 sky130_fd_pr__nfet_01v8 ad=1.09725 pd=6.98 as=2.5935 ps=14.08 w=6.65 l=2.75
X15 VTAIL.t8 VP.t5 VDD1.t0 B.t2 sky130_fd_pr__nfet_01v8 ad=1.09725 pd=6.98 as=1.09725 ps=6.98 w=6.65 l=2.75
R0 B.n673 B.n672 585
R1 B.n674 B.n673 585
R2 B.n237 B.n114 585
R3 B.n236 B.n235 585
R4 B.n234 B.n233 585
R5 B.n232 B.n231 585
R6 B.n230 B.n229 585
R7 B.n228 B.n227 585
R8 B.n226 B.n225 585
R9 B.n224 B.n223 585
R10 B.n222 B.n221 585
R11 B.n220 B.n219 585
R12 B.n218 B.n217 585
R13 B.n216 B.n215 585
R14 B.n214 B.n213 585
R15 B.n212 B.n211 585
R16 B.n210 B.n209 585
R17 B.n208 B.n207 585
R18 B.n206 B.n205 585
R19 B.n204 B.n203 585
R20 B.n202 B.n201 585
R21 B.n200 B.n199 585
R22 B.n198 B.n197 585
R23 B.n196 B.n195 585
R24 B.n194 B.n193 585
R25 B.n192 B.n191 585
R26 B.n190 B.n189 585
R27 B.n187 B.n186 585
R28 B.n185 B.n184 585
R29 B.n183 B.n182 585
R30 B.n181 B.n180 585
R31 B.n179 B.n178 585
R32 B.n177 B.n176 585
R33 B.n175 B.n174 585
R34 B.n173 B.n172 585
R35 B.n171 B.n170 585
R36 B.n169 B.n168 585
R37 B.n167 B.n166 585
R38 B.n165 B.n164 585
R39 B.n163 B.n162 585
R40 B.n161 B.n160 585
R41 B.n159 B.n158 585
R42 B.n157 B.n156 585
R43 B.n155 B.n154 585
R44 B.n153 B.n152 585
R45 B.n151 B.n150 585
R46 B.n149 B.n148 585
R47 B.n147 B.n146 585
R48 B.n145 B.n144 585
R49 B.n143 B.n142 585
R50 B.n141 B.n140 585
R51 B.n139 B.n138 585
R52 B.n137 B.n136 585
R53 B.n135 B.n134 585
R54 B.n133 B.n132 585
R55 B.n131 B.n130 585
R56 B.n129 B.n128 585
R57 B.n127 B.n126 585
R58 B.n125 B.n124 585
R59 B.n123 B.n122 585
R60 B.n121 B.n120 585
R61 B.n82 B.n81 585
R62 B.n671 B.n83 585
R63 B.n675 B.n83 585
R64 B.n670 B.n669 585
R65 B.n669 B.n79 585
R66 B.n668 B.n78 585
R67 B.n681 B.n78 585
R68 B.n667 B.n77 585
R69 B.n682 B.n77 585
R70 B.n666 B.n76 585
R71 B.n683 B.n76 585
R72 B.n665 B.n664 585
R73 B.n664 B.n72 585
R74 B.n663 B.n71 585
R75 B.n689 B.n71 585
R76 B.n662 B.n70 585
R77 B.n690 B.n70 585
R78 B.n661 B.n69 585
R79 B.n691 B.n69 585
R80 B.n660 B.n659 585
R81 B.n659 B.n65 585
R82 B.n658 B.n64 585
R83 B.n697 B.n64 585
R84 B.n657 B.n63 585
R85 B.n698 B.n63 585
R86 B.n656 B.n62 585
R87 B.n699 B.n62 585
R88 B.n655 B.n654 585
R89 B.n654 B.n58 585
R90 B.n653 B.n57 585
R91 B.n705 B.n57 585
R92 B.n652 B.n56 585
R93 B.n706 B.n56 585
R94 B.n651 B.n55 585
R95 B.n707 B.n55 585
R96 B.n650 B.n649 585
R97 B.n649 B.n51 585
R98 B.n648 B.n50 585
R99 B.n713 B.n50 585
R100 B.n647 B.n49 585
R101 B.n714 B.n49 585
R102 B.n646 B.n48 585
R103 B.n715 B.n48 585
R104 B.n645 B.n644 585
R105 B.n644 B.n44 585
R106 B.n643 B.n43 585
R107 B.n721 B.n43 585
R108 B.n642 B.n42 585
R109 B.n722 B.n42 585
R110 B.n641 B.n41 585
R111 B.n723 B.n41 585
R112 B.n640 B.n639 585
R113 B.n639 B.n37 585
R114 B.n638 B.n36 585
R115 B.n729 B.n36 585
R116 B.n637 B.n35 585
R117 B.n730 B.n35 585
R118 B.n636 B.n34 585
R119 B.n731 B.n34 585
R120 B.n635 B.n634 585
R121 B.n634 B.n33 585
R122 B.n633 B.n29 585
R123 B.n737 B.n29 585
R124 B.n632 B.n28 585
R125 B.n738 B.n28 585
R126 B.n631 B.n27 585
R127 B.n739 B.n27 585
R128 B.n630 B.n629 585
R129 B.n629 B.n23 585
R130 B.n628 B.n22 585
R131 B.n745 B.n22 585
R132 B.n627 B.n21 585
R133 B.n746 B.n21 585
R134 B.n626 B.n20 585
R135 B.n747 B.n20 585
R136 B.n625 B.n624 585
R137 B.n624 B.n16 585
R138 B.n623 B.n15 585
R139 B.n753 B.n15 585
R140 B.n622 B.n14 585
R141 B.n754 B.n14 585
R142 B.n621 B.n13 585
R143 B.n755 B.n13 585
R144 B.n620 B.n619 585
R145 B.n619 B.n12 585
R146 B.n618 B.n617 585
R147 B.n618 B.n8 585
R148 B.n616 B.n7 585
R149 B.n762 B.n7 585
R150 B.n615 B.n6 585
R151 B.n763 B.n6 585
R152 B.n614 B.n5 585
R153 B.n764 B.n5 585
R154 B.n613 B.n612 585
R155 B.n612 B.n4 585
R156 B.n611 B.n238 585
R157 B.n611 B.n610 585
R158 B.n601 B.n239 585
R159 B.n240 B.n239 585
R160 B.n603 B.n602 585
R161 B.n604 B.n603 585
R162 B.n600 B.n245 585
R163 B.n245 B.n244 585
R164 B.n599 B.n598 585
R165 B.n598 B.n597 585
R166 B.n247 B.n246 585
R167 B.n248 B.n247 585
R168 B.n590 B.n589 585
R169 B.n591 B.n590 585
R170 B.n588 B.n253 585
R171 B.n253 B.n252 585
R172 B.n587 B.n586 585
R173 B.n586 B.n585 585
R174 B.n255 B.n254 585
R175 B.n256 B.n255 585
R176 B.n578 B.n577 585
R177 B.n579 B.n578 585
R178 B.n576 B.n261 585
R179 B.n261 B.n260 585
R180 B.n575 B.n574 585
R181 B.n574 B.n573 585
R182 B.n263 B.n262 585
R183 B.n566 B.n263 585
R184 B.n565 B.n564 585
R185 B.n567 B.n565 585
R186 B.n563 B.n268 585
R187 B.n268 B.n267 585
R188 B.n562 B.n561 585
R189 B.n561 B.n560 585
R190 B.n270 B.n269 585
R191 B.n271 B.n270 585
R192 B.n553 B.n552 585
R193 B.n554 B.n553 585
R194 B.n551 B.n276 585
R195 B.n276 B.n275 585
R196 B.n550 B.n549 585
R197 B.n549 B.n548 585
R198 B.n278 B.n277 585
R199 B.n279 B.n278 585
R200 B.n541 B.n540 585
R201 B.n542 B.n541 585
R202 B.n539 B.n284 585
R203 B.n284 B.n283 585
R204 B.n538 B.n537 585
R205 B.n537 B.n536 585
R206 B.n286 B.n285 585
R207 B.n287 B.n286 585
R208 B.n529 B.n528 585
R209 B.n530 B.n529 585
R210 B.n527 B.n292 585
R211 B.n292 B.n291 585
R212 B.n526 B.n525 585
R213 B.n525 B.n524 585
R214 B.n294 B.n293 585
R215 B.n295 B.n294 585
R216 B.n517 B.n516 585
R217 B.n518 B.n517 585
R218 B.n515 B.n300 585
R219 B.n300 B.n299 585
R220 B.n514 B.n513 585
R221 B.n513 B.n512 585
R222 B.n302 B.n301 585
R223 B.n303 B.n302 585
R224 B.n505 B.n504 585
R225 B.n506 B.n505 585
R226 B.n503 B.n307 585
R227 B.n311 B.n307 585
R228 B.n502 B.n501 585
R229 B.n501 B.n500 585
R230 B.n309 B.n308 585
R231 B.n310 B.n309 585
R232 B.n493 B.n492 585
R233 B.n494 B.n493 585
R234 B.n491 B.n316 585
R235 B.n316 B.n315 585
R236 B.n490 B.n489 585
R237 B.n489 B.n488 585
R238 B.n318 B.n317 585
R239 B.n319 B.n318 585
R240 B.n481 B.n480 585
R241 B.n482 B.n481 585
R242 B.n322 B.n321 585
R243 B.n359 B.n357 585
R244 B.n360 B.n356 585
R245 B.n360 B.n323 585
R246 B.n363 B.n362 585
R247 B.n364 B.n355 585
R248 B.n366 B.n365 585
R249 B.n368 B.n354 585
R250 B.n371 B.n370 585
R251 B.n372 B.n353 585
R252 B.n374 B.n373 585
R253 B.n376 B.n352 585
R254 B.n379 B.n378 585
R255 B.n380 B.n351 585
R256 B.n382 B.n381 585
R257 B.n384 B.n350 585
R258 B.n387 B.n386 585
R259 B.n388 B.n349 585
R260 B.n390 B.n389 585
R261 B.n392 B.n348 585
R262 B.n395 B.n394 585
R263 B.n396 B.n347 585
R264 B.n398 B.n397 585
R265 B.n400 B.n346 585
R266 B.n403 B.n402 585
R267 B.n404 B.n345 585
R268 B.n409 B.n408 585
R269 B.n411 B.n344 585
R270 B.n414 B.n413 585
R271 B.n415 B.n343 585
R272 B.n417 B.n416 585
R273 B.n419 B.n342 585
R274 B.n422 B.n421 585
R275 B.n423 B.n341 585
R276 B.n425 B.n424 585
R277 B.n427 B.n340 585
R278 B.n430 B.n429 585
R279 B.n431 B.n336 585
R280 B.n433 B.n432 585
R281 B.n435 B.n335 585
R282 B.n438 B.n437 585
R283 B.n439 B.n334 585
R284 B.n441 B.n440 585
R285 B.n443 B.n333 585
R286 B.n446 B.n445 585
R287 B.n447 B.n332 585
R288 B.n449 B.n448 585
R289 B.n451 B.n331 585
R290 B.n454 B.n453 585
R291 B.n455 B.n330 585
R292 B.n457 B.n456 585
R293 B.n459 B.n329 585
R294 B.n462 B.n461 585
R295 B.n463 B.n328 585
R296 B.n465 B.n464 585
R297 B.n467 B.n327 585
R298 B.n470 B.n469 585
R299 B.n471 B.n326 585
R300 B.n473 B.n472 585
R301 B.n475 B.n325 585
R302 B.n478 B.n477 585
R303 B.n479 B.n324 585
R304 B.n484 B.n483 585
R305 B.n483 B.n482 585
R306 B.n485 B.n320 585
R307 B.n320 B.n319 585
R308 B.n487 B.n486 585
R309 B.n488 B.n487 585
R310 B.n314 B.n313 585
R311 B.n315 B.n314 585
R312 B.n496 B.n495 585
R313 B.n495 B.n494 585
R314 B.n497 B.n312 585
R315 B.n312 B.n310 585
R316 B.n499 B.n498 585
R317 B.n500 B.n499 585
R318 B.n306 B.n305 585
R319 B.n311 B.n306 585
R320 B.n508 B.n507 585
R321 B.n507 B.n506 585
R322 B.n509 B.n304 585
R323 B.n304 B.n303 585
R324 B.n511 B.n510 585
R325 B.n512 B.n511 585
R326 B.n298 B.n297 585
R327 B.n299 B.n298 585
R328 B.n520 B.n519 585
R329 B.n519 B.n518 585
R330 B.n521 B.n296 585
R331 B.n296 B.n295 585
R332 B.n523 B.n522 585
R333 B.n524 B.n523 585
R334 B.n290 B.n289 585
R335 B.n291 B.n290 585
R336 B.n532 B.n531 585
R337 B.n531 B.n530 585
R338 B.n533 B.n288 585
R339 B.n288 B.n287 585
R340 B.n535 B.n534 585
R341 B.n536 B.n535 585
R342 B.n282 B.n281 585
R343 B.n283 B.n282 585
R344 B.n544 B.n543 585
R345 B.n543 B.n542 585
R346 B.n545 B.n280 585
R347 B.n280 B.n279 585
R348 B.n547 B.n546 585
R349 B.n548 B.n547 585
R350 B.n274 B.n273 585
R351 B.n275 B.n274 585
R352 B.n556 B.n555 585
R353 B.n555 B.n554 585
R354 B.n557 B.n272 585
R355 B.n272 B.n271 585
R356 B.n559 B.n558 585
R357 B.n560 B.n559 585
R358 B.n266 B.n265 585
R359 B.n267 B.n266 585
R360 B.n569 B.n568 585
R361 B.n568 B.n567 585
R362 B.n570 B.n264 585
R363 B.n566 B.n264 585
R364 B.n572 B.n571 585
R365 B.n573 B.n572 585
R366 B.n259 B.n258 585
R367 B.n260 B.n259 585
R368 B.n581 B.n580 585
R369 B.n580 B.n579 585
R370 B.n582 B.n257 585
R371 B.n257 B.n256 585
R372 B.n584 B.n583 585
R373 B.n585 B.n584 585
R374 B.n251 B.n250 585
R375 B.n252 B.n251 585
R376 B.n593 B.n592 585
R377 B.n592 B.n591 585
R378 B.n594 B.n249 585
R379 B.n249 B.n248 585
R380 B.n596 B.n595 585
R381 B.n597 B.n596 585
R382 B.n243 B.n242 585
R383 B.n244 B.n243 585
R384 B.n606 B.n605 585
R385 B.n605 B.n604 585
R386 B.n607 B.n241 585
R387 B.n241 B.n240 585
R388 B.n609 B.n608 585
R389 B.n610 B.n609 585
R390 B.n3 B.n0 585
R391 B.n4 B.n3 585
R392 B.n761 B.n1 585
R393 B.n762 B.n761 585
R394 B.n760 B.n759 585
R395 B.n760 B.n8 585
R396 B.n758 B.n9 585
R397 B.n12 B.n9 585
R398 B.n757 B.n756 585
R399 B.n756 B.n755 585
R400 B.n11 B.n10 585
R401 B.n754 B.n11 585
R402 B.n752 B.n751 585
R403 B.n753 B.n752 585
R404 B.n750 B.n17 585
R405 B.n17 B.n16 585
R406 B.n749 B.n748 585
R407 B.n748 B.n747 585
R408 B.n19 B.n18 585
R409 B.n746 B.n19 585
R410 B.n744 B.n743 585
R411 B.n745 B.n744 585
R412 B.n742 B.n24 585
R413 B.n24 B.n23 585
R414 B.n741 B.n740 585
R415 B.n740 B.n739 585
R416 B.n26 B.n25 585
R417 B.n738 B.n26 585
R418 B.n736 B.n735 585
R419 B.n737 B.n736 585
R420 B.n734 B.n30 585
R421 B.n33 B.n30 585
R422 B.n733 B.n732 585
R423 B.n732 B.n731 585
R424 B.n32 B.n31 585
R425 B.n730 B.n32 585
R426 B.n728 B.n727 585
R427 B.n729 B.n728 585
R428 B.n726 B.n38 585
R429 B.n38 B.n37 585
R430 B.n725 B.n724 585
R431 B.n724 B.n723 585
R432 B.n40 B.n39 585
R433 B.n722 B.n40 585
R434 B.n720 B.n719 585
R435 B.n721 B.n720 585
R436 B.n718 B.n45 585
R437 B.n45 B.n44 585
R438 B.n717 B.n716 585
R439 B.n716 B.n715 585
R440 B.n47 B.n46 585
R441 B.n714 B.n47 585
R442 B.n712 B.n711 585
R443 B.n713 B.n712 585
R444 B.n710 B.n52 585
R445 B.n52 B.n51 585
R446 B.n709 B.n708 585
R447 B.n708 B.n707 585
R448 B.n54 B.n53 585
R449 B.n706 B.n54 585
R450 B.n704 B.n703 585
R451 B.n705 B.n704 585
R452 B.n702 B.n59 585
R453 B.n59 B.n58 585
R454 B.n701 B.n700 585
R455 B.n700 B.n699 585
R456 B.n61 B.n60 585
R457 B.n698 B.n61 585
R458 B.n696 B.n695 585
R459 B.n697 B.n696 585
R460 B.n694 B.n66 585
R461 B.n66 B.n65 585
R462 B.n693 B.n692 585
R463 B.n692 B.n691 585
R464 B.n68 B.n67 585
R465 B.n690 B.n68 585
R466 B.n688 B.n687 585
R467 B.n689 B.n688 585
R468 B.n686 B.n73 585
R469 B.n73 B.n72 585
R470 B.n685 B.n684 585
R471 B.n684 B.n683 585
R472 B.n75 B.n74 585
R473 B.n682 B.n75 585
R474 B.n680 B.n679 585
R475 B.n681 B.n680 585
R476 B.n678 B.n80 585
R477 B.n80 B.n79 585
R478 B.n677 B.n676 585
R479 B.n676 B.n675 585
R480 B.n765 B.n764 585
R481 B.n763 B.n2 585
R482 B.n676 B.n82 502.111
R483 B.n673 B.n83 502.111
R484 B.n481 B.n324 502.111
R485 B.n483 B.n322 502.111
R486 B.n117 B.t14 266.541
R487 B.n115 B.t6 266.541
R488 B.n337 B.t17 266.541
R489 B.n405 B.t10 266.541
R490 B.n674 B.n113 256.663
R491 B.n674 B.n112 256.663
R492 B.n674 B.n111 256.663
R493 B.n674 B.n110 256.663
R494 B.n674 B.n109 256.663
R495 B.n674 B.n108 256.663
R496 B.n674 B.n107 256.663
R497 B.n674 B.n106 256.663
R498 B.n674 B.n105 256.663
R499 B.n674 B.n104 256.663
R500 B.n674 B.n103 256.663
R501 B.n674 B.n102 256.663
R502 B.n674 B.n101 256.663
R503 B.n674 B.n100 256.663
R504 B.n674 B.n99 256.663
R505 B.n674 B.n98 256.663
R506 B.n674 B.n97 256.663
R507 B.n674 B.n96 256.663
R508 B.n674 B.n95 256.663
R509 B.n674 B.n94 256.663
R510 B.n674 B.n93 256.663
R511 B.n674 B.n92 256.663
R512 B.n674 B.n91 256.663
R513 B.n674 B.n90 256.663
R514 B.n674 B.n89 256.663
R515 B.n674 B.n88 256.663
R516 B.n674 B.n87 256.663
R517 B.n674 B.n86 256.663
R518 B.n674 B.n85 256.663
R519 B.n674 B.n84 256.663
R520 B.n358 B.n323 256.663
R521 B.n361 B.n323 256.663
R522 B.n367 B.n323 256.663
R523 B.n369 B.n323 256.663
R524 B.n375 B.n323 256.663
R525 B.n377 B.n323 256.663
R526 B.n383 B.n323 256.663
R527 B.n385 B.n323 256.663
R528 B.n391 B.n323 256.663
R529 B.n393 B.n323 256.663
R530 B.n399 B.n323 256.663
R531 B.n401 B.n323 256.663
R532 B.n410 B.n323 256.663
R533 B.n412 B.n323 256.663
R534 B.n418 B.n323 256.663
R535 B.n420 B.n323 256.663
R536 B.n426 B.n323 256.663
R537 B.n428 B.n323 256.663
R538 B.n434 B.n323 256.663
R539 B.n436 B.n323 256.663
R540 B.n442 B.n323 256.663
R541 B.n444 B.n323 256.663
R542 B.n450 B.n323 256.663
R543 B.n452 B.n323 256.663
R544 B.n458 B.n323 256.663
R545 B.n460 B.n323 256.663
R546 B.n466 B.n323 256.663
R547 B.n468 B.n323 256.663
R548 B.n474 B.n323 256.663
R549 B.n476 B.n323 256.663
R550 B.n767 B.n766 256.663
R551 B.n115 B.t8 249.816
R552 B.n337 B.t19 249.816
R553 B.n117 B.t15 249.816
R554 B.n405 B.t13 249.816
R555 B.n116 B.t9 190.083
R556 B.n338 B.t18 190.083
R557 B.n118 B.t16 190.083
R558 B.n406 B.t12 190.083
R559 B.n122 B.n121 163.367
R560 B.n126 B.n125 163.367
R561 B.n130 B.n129 163.367
R562 B.n134 B.n133 163.367
R563 B.n138 B.n137 163.367
R564 B.n142 B.n141 163.367
R565 B.n146 B.n145 163.367
R566 B.n150 B.n149 163.367
R567 B.n154 B.n153 163.367
R568 B.n158 B.n157 163.367
R569 B.n162 B.n161 163.367
R570 B.n166 B.n165 163.367
R571 B.n170 B.n169 163.367
R572 B.n174 B.n173 163.367
R573 B.n178 B.n177 163.367
R574 B.n182 B.n181 163.367
R575 B.n186 B.n185 163.367
R576 B.n191 B.n190 163.367
R577 B.n195 B.n194 163.367
R578 B.n199 B.n198 163.367
R579 B.n203 B.n202 163.367
R580 B.n207 B.n206 163.367
R581 B.n211 B.n210 163.367
R582 B.n215 B.n214 163.367
R583 B.n219 B.n218 163.367
R584 B.n223 B.n222 163.367
R585 B.n227 B.n226 163.367
R586 B.n231 B.n230 163.367
R587 B.n235 B.n234 163.367
R588 B.n673 B.n114 163.367
R589 B.n481 B.n318 163.367
R590 B.n489 B.n318 163.367
R591 B.n489 B.n316 163.367
R592 B.n493 B.n316 163.367
R593 B.n493 B.n309 163.367
R594 B.n501 B.n309 163.367
R595 B.n501 B.n307 163.367
R596 B.n505 B.n307 163.367
R597 B.n505 B.n302 163.367
R598 B.n513 B.n302 163.367
R599 B.n513 B.n300 163.367
R600 B.n517 B.n300 163.367
R601 B.n517 B.n294 163.367
R602 B.n525 B.n294 163.367
R603 B.n525 B.n292 163.367
R604 B.n529 B.n292 163.367
R605 B.n529 B.n286 163.367
R606 B.n537 B.n286 163.367
R607 B.n537 B.n284 163.367
R608 B.n541 B.n284 163.367
R609 B.n541 B.n278 163.367
R610 B.n549 B.n278 163.367
R611 B.n549 B.n276 163.367
R612 B.n553 B.n276 163.367
R613 B.n553 B.n270 163.367
R614 B.n561 B.n270 163.367
R615 B.n561 B.n268 163.367
R616 B.n565 B.n268 163.367
R617 B.n565 B.n263 163.367
R618 B.n574 B.n263 163.367
R619 B.n574 B.n261 163.367
R620 B.n578 B.n261 163.367
R621 B.n578 B.n255 163.367
R622 B.n586 B.n255 163.367
R623 B.n586 B.n253 163.367
R624 B.n590 B.n253 163.367
R625 B.n590 B.n247 163.367
R626 B.n598 B.n247 163.367
R627 B.n598 B.n245 163.367
R628 B.n603 B.n245 163.367
R629 B.n603 B.n239 163.367
R630 B.n611 B.n239 163.367
R631 B.n612 B.n611 163.367
R632 B.n612 B.n5 163.367
R633 B.n6 B.n5 163.367
R634 B.n7 B.n6 163.367
R635 B.n618 B.n7 163.367
R636 B.n619 B.n618 163.367
R637 B.n619 B.n13 163.367
R638 B.n14 B.n13 163.367
R639 B.n15 B.n14 163.367
R640 B.n624 B.n15 163.367
R641 B.n624 B.n20 163.367
R642 B.n21 B.n20 163.367
R643 B.n22 B.n21 163.367
R644 B.n629 B.n22 163.367
R645 B.n629 B.n27 163.367
R646 B.n28 B.n27 163.367
R647 B.n29 B.n28 163.367
R648 B.n634 B.n29 163.367
R649 B.n634 B.n34 163.367
R650 B.n35 B.n34 163.367
R651 B.n36 B.n35 163.367
R652 B.n639 B.n36 163.367
R653 B.n639 B.n41 163.367
R654 B.n42 B.n41 163.367
R655 B.n43 B.n42 163.367
R656 B.n644 B.n43 163.367
R657 B.n644 B.n48 163.367
R658 B.n49 B.n48 163.367
R659 B.n50 B.n49 163.367
R660 B.n649 B.n50 163.367
R661 B.n649 B.n55 163.367
R662 B.n56 B.n55 163.367
R663 B.n57 B.n56 163.367
R664 B.n654 B.n57 163.367
R665 B.n654 B.n62 163.367
R666 B.n63 B.n62 163.367
R667 B.n64 B.n63 163.367
R668 B.n659 B.n64 163.367
R669 B.n659 B.n69 163.367
R670 B.n70 B.n69 163.367
R671 B.n71 B.n70 163.367
R672 B.n664 B.n71 163.367
R673 B.n664 B.n76 163.367
R674 B.n77 B.n76 163.367
R675 B.n78 B.n77 163.367
R676 B.n669 B.n78 163.367
R677 B.n669 B.n83 163.367
R678 B.n360 B.n359 163.367
R679 B.n362 B.n360 163.367
R680 B.n366 B.n355 163.367
R681 B.n370 B.n368 163.367
R682 B.n374 B.n353 163.367
R683 B.n378 B.n376 163.367
R684 B.n382 B.n351 163.367
R685 B.n386 B.n384 163.367
R686 B.n390 B.n349 163.367
R687 B.n394 B.n392 163.367
R688 B.n398 B.n347 163.367
R689 B.n402 B.n400 163.367
R690 B.n409 B.n345 163.367
R691 B.n413 B.n411 163.367
R692 B.n417 B.n343 163.367
R693 B.n421 B.n419 163.367
R694 B.n425 B.n341 163.367
R695 B.n429 B.n427 163.367
R696 B.n433 B.n336 163.367
R697 B.n437 B.n435 163.367
R698 B.n441 B.n334 163.367
R699 B.n445 B.n443 163.367
R700 B.n449 B.n332 163.367
R701 B.n453 B.n451 163.367
R702 B.n457 B.n330 163.367
R703 B.n461 B.n459 163.367
R704 B.n465 B.n328 163.367
R705 B.n469 B.n467 163.367
R706 B.n473 B.n326 163.367
R707 B.n477 B.n475 163.367
R708 B.n483 B.n320 163.367
R709 B.n487 B.n320 163.367
R710 B.n487 B.n314 163.367
R711 B.n495 B.n314 163.367
R712 B.n495 B.n312 163.367
R713 B.n499 B.n312 163.367
R714 B.n499 B.n306 163.367
R715 B.n507 B.n306 163.367
R716 B.n507 B.n304 163.367
R717 B.n511 B.n304 163.367
R718 B.n511 B.n298 163.367
R719 B.n519 B.n298 163.367
R720 B.n519 B.n296 163.367
R721 B.n523 B.n296 163.367
R722 B.n523 B.n290 163.367
R723 B.n531 B.n290 163.367
R724 B.n531 B.n288 163.367
R725 B.n535 B.n288 163.367
R726 B.n535 B.n282 163.367
R727 B.n543 B.n282 163.367
R728 B.n543 B.n280 163.367
R729 B.n547 B.n280 163.367
R730 B.n547 B.n274 163.367
R731 B.n555 B.n274 163.367
R732 B.n555 B.n272 163.367
R733 B.n559 B.n272 163.367
R734 B.n559 B.n266 163.367
R735 B.n568 B.n266 163.367
R736 B.n568 B.n264 163.367
R737 B.n572 B.n264 163.367
R738 B.n572 B.n259 163.367
R739 B.n580 B.n259 163.367
R740 B.n580 B.n257 163.367
R741 B.n584 B.n257 163.367
R742 B.n584 B.n251 163.367
R743 B.n592 B.n251 163.367
R744 B.n592 B.n249 163.367
R745 B.n596 B.n249 163.367
R746 B.n596 B.n243 163.367
R747 B.n605 B.n243 163.367
R748 B.n605 B.n241 163.367
R749 B.n609 B.n241 163.367
R750 B.n609 B.n3 163.367
R751 B.n765 B.n3 163.367
R752 B.n761 B.n2 163.367
R753 B.n761 B.n760 163.367
R754 B.n760 B.n9 163.367
R755 B.n756 B.n9 163.367
R756 B.n756 B.n11 163.367
R757 B.n752 B.n11 163.367
R758 B.n752 B.n17 163.367
R759 B.n748 B.n17 163.367
R760 B.n748 B.n19 163.367
R761 B.n744 B.n19 163.367
R762 B.n744 B.n24 163.367
R763 B.n740 B.n24 163.367
R764 B.n740 B.n26 163.367
R765 B.n736 B.n26 163.367
R766 B.n736 B.n30 163.367
R767 B.n732 B.n30 163.367
R768 B.n732 B.n32 163.367
R769 B.n728 B.n32 163.367
R770 B.n728 B.n38 163.367
R771 B.n724 B.n38 163.367
R772 B.n724 B.n40 163.367
R773 B.n720 B.n40 163.367
R774 B.n720 B.n45 163.367
R775 B.n716 B.n45 163.367
R776 B.n716 B.n47 163.367
R777 B.n712 B.n47 163.367
R778 B.n712 B.n52 163.367
R779 B.n708 B.n52 163.367
R780 B.n708 B.n54 163.367
R781 B.n704 B.n54 163.367
R782 B.n704 B.n59 163.367
R783 B.n700 B.n59 163.367
R784 B.n700 B.n61 163.367
R785 B.n696 B.n61 163.367
R786 B.n696 B.n66 163.367
R787 B.n692 B.n66 163.367
R788 B.n692 B.n68 163.367
R789 B.n688 B.n68 163.367
R790 B.n688 B.n73 163.367
R791 B.n684 B.n73 163.367
R792 B.n684 B.n75 163.367
R793 B.n680 B.n75 163.367
R794 B.n680 B.n80 163.367
R795 B.n676 B.n80 163.367
R796 B.n482 B.n323 104.236
R797 B.n675 B.n674 104.236
R798 B.n84 B.n82 71.676
R799 B.n122 B.n85 71.676
R800 B.n126 B.n86 71.676
R801 B.n130 B.n87 71.676
R802 B.n134 B.n88 71.676
R803 B.n138 B.n89 71.676
R804 B.n142 B.n90 71.676
R805 B.n146 B.n91 71.676
R806 B.n150 B.n92 71.676
R807 B.n154 B.n93 71.676
R808 B.n158 B.n94 71.676
R809 B.n162 B.n95 71.676
R810 B.n166 B.n96 71.676
R811 B.n170 B.n97 71.676
R812 B.n174 B.n98 71.676
R813 B.n178 B.n99 71.676
R814 B.n182 B.n100 71.676
R815 B.n186 B.n101 71.676
R816 B.n191 B.n102 71.676
R817 B.n195 B.n103 71.676
R818 B.n199 B.n104 71.676
R819 B.n203 B.n105 71.676
R820 B.n207 B.n106 71.676
R821 B.n211 B.n107 71.676
R822 B.n215 B.n108 71.676
R823 B.n219 B.n109 71.676
R824 B.n223 B.n110 71.676
R825 B.n227 B.n111 71.676
R826 B.n231 B.n112 71.676
R827 B.n235 B.n113 71.676
R828 B.n114 B.n113 71.676
R829 B.n234 B.n112 71.676
R830 B.n230 B.n111 71.676
R831 B.n226 B.n110 71.676
R832 B.n222 B.n109 71.676
R833 B.n218 B.n108 71.676
R834 B.n214 B.n107 71.676
R835 B.n210 B.n106 71.676
R836 B.n206 B.n105 71.676
R837 B.n202 B.n104 71.676
R838 B.n198 B.n103 71.676
R839 B.n194 B.n102 71.676
R840 B.n190 B.n101 71.676
R841 B.n185 B.n100 71.676
R842 B.n181 B.n99 71.676
R843 B.n177 B.n98 71.676
R844 B.n173 B.n97 71.676
R845 B.n169 B.n96 71.676
R846 B.n165 B.n95 71.676
R847 B.n161 B.n94 71.676
R848 B.n157 B.n93 71.676
R849 B.n153 B.n92 71.676
R850 B.n149 B.n91 71.676
R851 B.n145 B.n90 71.676
R852 B.n141 B.n89 71.676
R853 B.n137 B.n88 71.676
R854 B.n133 B.n87 71.676
R855 B.n129 B.n86 71.676
R856 B.n125 B.n85 71.676
R857 B.n121 B.n84 71.676
R858 B.n358 B.n322 71.676
R859 B.n362 B.n361 71.676
R860 B.n367 B.n366 71.676
R861 B.n370 B.n369 71.676
R862 B.n375 B.n374 71.676
R863 B.n378 B.n377 71.676
R864 B.n383 B.n382 71.676
R865 B.n386 B.n385 71.676
R866 B.n391 B.n390 71.676
R867 B.n394 B.n393 71.676
R868 B.n399 B.n398 71.676
R869 B.n402 B.n401 71.676
R870 B.n410 B.n409 71.676
R871 B.n413 B.n412 71.676
R872 B.n418 B.n417 71.676
R873 B.n421 B.n420 71.676
R874 B.n426 B.n425 71.676
R875 B.n429 B.n428 71.676
R876 B.n434 B.n433 71.676
R877 B.n437 B.n436 71.676
R878 B.n442 B.n441 71.676
R879 B.n445 B.n444 71.676
R880 B.n450 B.n449 71.676
R881 B.n453 B.n452 71.676
R882 B.n458 B.n457 71.676
R883 B.n461 B.n460 71.676
R884 B.n466 B.n465 71.676
R885 B.n469 B.n468 71.676
R886 B.n474 B.n473 71.676
R887 B.n477 B.n476 71.676
R888 B.n359 B.n358 71.676
R889 B.n361 B.n355 71.676
R890 B.n368 B.n367 71.676
R891 B.n369 B.n353 71.676
R892 B.n376 B.n375 71.676
R893 B.n377 B.n351 71.676
R894 B.n384 B.n383 71.676
R895 B.n385 B.n349 71.676
R896 B.n392 B.n391 71.676
R897 B.n393 B.n347 71.676
R898 B.n400 B.n399 71.676
R899 B.n401 B.n345 71.676
R900 B.n411 B.n410 71.676
R901 B.n412 B.n343 71.676
R902 B.n419 B.n418 71.676
R903 B.n420 B.n341 71.676
R904 B.n427 B.n426 71.676
R905 B.n428 B.n336 71.676
R906 B.n435 B.n434 71.676
R907 B.n436 B.n334 71.676
R908 B.n443 B.n442 71.676
R909 B.n444 B.n332 71.676
R910 B.n451 B.n450 71.676
R911 B.n452 B.n330 71.676
R912 B.n459 B.n458 71.676
R913 B.n460 B.n328 71.676
R914 B.n467 B.n466 71.676
R915 B.n468 B.n326 71.676
R916 B.n475 B.n474 71.676
R917 B.n476 B.n324 71.676
R918 B.n766 B.n765 71.676
R919 B.n766 B.n2 71.676
R920 B.n482 B.n319 62.7259
R921 B.n488 B.n319 62.7259
R922 B.n488 B.n315 62.7259
R923 B.n494 B.n315 62.7259
R924 B.n494 B.n310 62.7259
R925 B.n500 B.n310 62.7259
R926 B.n500 B.n311 62.7259
R927 B.n506 B.n303 62.7259
R928 B.n512 B.n303 62.7259
R929 B.n512 B.n299 62.7259
R930 B.n518 B.n299 62.7259
R931 B.n518 B.n295 62.7259
R932 B.n524 B.n295 62.7259
R933 B.n524 B.n291 62.7259
R934 B.n530 B.n291 62.7259
R935 B.n530 B.n287 62.7259
R936 B.n536 B.n287 62.7259
R937 B.n536 B.n283 62.7259
R938 B.n542 B.n283 62.7259
R939 B.n548 B.n279 62.7259
R940 B.n548 B.n275 62.7259
R941 B.n554 B.n275 62.7259
R942 B.n554 B.n271 62.7259
R943 B.n560 B.n271 62.7259
R944 B.n560 B.n267 62.7259
R945 B.n567 B.n267 62.7259
R946 B.n567 B.n566 62.7259
R947 B.n573 B.n260 62.7259
R948 B.n579 B.n260 62.7259
R949 B.n579 B.n256 62.7259
R950 B.n585 B.n256 62.7259
R951 B.n585 B.n252 62.7259
R952 B.n591 B.n252 62.7259
R953 B.n591 B.n248 62.7259
R954 B.n597 B.n248 62.7259
R955 B.n604 B.n244 62.7259
R956 B.n604 B.n240 62.7259
R957 B.n610 B.n240 62.7259
R958 B.n610 B.n4 62.7259
R959 B.n764 B.n4 62.7259
R960 B.n764 B.n763 62.7259
R961 B.n763 B.n762 62.7259
R962 B.n762 B.n8 62.7259
R963 B.n12 B.n8 62.7259
R964 B.n755 B.n12 62.7259
R965 B.n755 B.n754 62.7259
R966 B.n753 B.n16 62.7259
R967 B.n747 B.n16 62.7259
R968 B.n747 B.n746 62.7259
R969 B.n746 B.n745 62.7259
R970 B.n745 B.n23 62.7259
R971 B.n739 B.n23 62.7259
R972 B.n739 B.n738 62.7259
R973 B.n738 B.n737 62.7259
R974 B.n731 B.n33 62.7259
R975 B.n731 B.n730 62.7259
R976 B.n730 B.n729 62.7259
R977 B.n729 B.n37 62.7259
R978 B.n723 B.n37 62.7259
R979 B.n723 B.n722 62.7259
R980 B.n722 B.n721 62.7259
R981 B.n721 B.n44 62.7259
R982 B.n715 B.n714 62.7259
R983 B.n714 B.n713 62.7259
R984 B.n713 B.n51 62.7259
R985 B.n707 B.n51 62.7259
R986 B.n707 B.n706 62.7259
R987 B.n706 B.n705 62.7259
R988 B.n705 B.n58 62.7259
R989 B.n699 B.n58 62.7259
R990 B.n699 B.n698 62.7259
R991 B.n698 B.n697 62.7259
R992 B.n697 B.n65 62.7259
R993 B.n691 B.n65 62.7259
R994 B.n690 B.n689 62.7259
R995 B.n689 B.n72 62.7259
R996 B.n683 B.n72 62.7259
R997 B.n683 B.n682 62.7259
R998 B.n682 B.n681 62.7259
R999 B.n681 B.n79 62.7259
R1000 B.n675 B.n79 62.7259
R1001 B.n311 B.t11 61.8034
R1002 B.t7 B.n690 61.8034
R1003 B.n118 B.n117 59.7338
R1004 B.n116 B.n115 59.7338
R1005 B.n338 B.n337 59.7338
R1006 B.n406 B.n405 59.7338
R1007 B.n119 B.n118 59.5399
R1008 B.n188 B.n116 59.5399
R1009 B.n339 B.n338 59.5399
R1010 B.n407 B.n406 59.5399
R1011 B.t5 B.n279 47.0445
R1012 B.t0 B.n44 47.0445
R1013 B.n573 B.t3 43.3548
R1014 B.n737 B.t2 43.3548
R1015 B.t1 B.n244 39.6651
R1016 B.n754 B.t4 39.6651
R1017 B.n484 B.n321 32.6249
R1018 B.n480 B.n479 32.6249
R1019 B.n672 B.n671 32.6249
R1020 B.n677 B.n81 32.6249
R1021 B.n597 B.t1 23.0613
R1022 B.t4 B.n753 23.0613
R1023 B.n566 B.t3 19.3716
R1024 B.n33 B.t2 19.3716
R1025 B B.n767 18.0485
R1026 B.n542 B.t5 15.6818
R1027 B.n715 B.t0 15.6818
R1028 B.n485 B.n484 10.6151
R1029 B.n486 B.n485 10.6151
R1030 B.n486 B.n313 10.6151
R1031 B.n496 B.n313 10.6151
R1032 B.n497 B.n496 10.6151
R1033 B.n498 B.n497 10.6151
R1034 B.n498 B.n305 10.6151
R1035 B.n508 B.n305 10.6151
R1036 B.n509 B.n508 10.6151
R1037 B.n510 B.n509 10.6151
R1038 B.n510 B.n297 10.6151
R1039 B.n520 B.n297 10.6151
R1040 B.n521 B.n520 10.6151
R1041 B.n522 B.n521 10.6151
R1042 B.n522 B.n289 10.6151
R1043 B.n532 B.n289 10.6151
R1044 B.n533 B.n532 10.6151
R1045 B.n534 B.n533 10.6151
R1046 B.n534 B.n281 10.6151
R1047 B.n544 B.n281 10.6151
R1048 B.n545 B.n544 10.6151
R1049 B.n546 B.n545 10.6151
R1050 B.n546 B.n273 10.6151
R1051 B.n556 B.n273 10.6151
R1052 B.n557 B.n556 10.6151
R1053 B.n558 B.n557 10.6151
R1054 B.n558 B.n265 10.6151
R1055 B.n569 B.n265 10.6151
R1056 B.n570 B.n569 10.6151
R1057 B.n571 B.n570 10.6151
R1058 B.n571 B.n258 10.6151
R1059 B.n581 B.n258 10.6151
R1060 B.n582 B.n581 10.6151
R1061 B.n583 B.n582 10.6151
R1062 B.n583 B.n250 10.6151
R1063 B.n593 B.n250 10.6151
R1064 B.n594 B.n593 10.6151
R1065 B.n595 B.n594 10.6151
R1066 B.n595 B.n242 10.6151
R1067 B.n606 B.n242 10.6151
R1068 B.n607 B.n606 10.6151
R1069 B.n608 B.n607 10.6151
R1070 B.n608 B.n0 10.6151
R1071 B.n357 B.n321 10.6151
R1072 B.n357 B.n356 10.6151
R1073 B.n363 B.n356 10.6151
R1074 B.n364 B.n363 10.6151
R1075 B.n365 B.n364 10.6151
R1076 B.n365 B.n354 10.6151
R1077 B.n371 B.n354 10.6151
R1078 B.n372 B.n371 10.6151
R1079 B.n373 B.n372 10.6151
R1080 B.n373 B.n352 10.6151
R1081 B.n379 B.n352 10.6151
R1082 B.n380 B.n379 10.6151
R1083 B.n381 B.n380 10.6151
R1084 B.n381 B.n350 10.6151
R1085 B.n387 B.n350 10.6151
R1086 B.n388 B.n387 10.6151
R1087 B.n389 B.n388 10.6151
R1088 B.n389 B.n348 10.6151
R1089 B.n395 B.n348 10.6151
R1090 B.n396 B.n395 10.6151
R1091 B.n397 B.n396 10.6151
R1092 B.n397 B.n346 10.6151
R1093 B.n403 B.n346 10.6151
R1094 B.n404 B.n403 10.6151
R1095 B.n408 B.n404 10.6151
R1096 B.n414 B.n344 10.6151
R1097 B.n415 B.n414 10.6151
R1098 B.n416 B.n415 10.6151
R1099 B.n416 B.n342 10.6151
R1100 B.n422 B.n342 10.6151
R1101 B.n423 B.n422 10.6151
R1102 B.n424 B.n423 10.6151
R1103 B.n424 B.n340 10.6151
R1104 B.n431 B.n430 10.6151
R1105 B.n432 B.n431 10.6151
R1106 B.n432 B.n335 10.6151
R1107 B.n438 B.n335 10.6151
R1108 B.n439 B.n438 10.6151
R1109 B.n440 B.n439 10.6151
R1110 B.n440 B.n333 10.6151
R1111 B.n446 B.n333 10.6151
R1112 B.n447 B.n446 10.6151
R1113 B.n448 B.n447 10.6151
R1114 B.n448 B.n331 10.6151
R1115 B.n454 B.n331 10.6151
R1116 B.n455 B.n454 10.6151
R1117 B.n456 B.n455 10.6151
R1118 B.n456 B.n329 10.6151
R1119 B.n462 B.n329 10.6151
R1120 B.n463 B.n462 10.6151
R1121 B.n464 B.n463 10.6151
R1122 B.n464 B.n327 10.6151
R1123 B.n470 B.n327 10.6151
R1124 B.n471 B.n470 10.6151
R1125 B.n472 B.n471 10.6151
R1126 B.n472 B.n325 10.6151
R1127 B.n478 B.n325 10.6151
R1128 B.n479 B.n478 10.6151
R1129 B.n480 B.n317 10.6151
R1130 B.n490 B.n317 10.6151
R1131 B.n491 B.n490 10.6151
R1132 B.n492 B.n491 10.6151
R1133 B.n492 B.n308 10.6151
R1134 B.n502 B.n308 10.6151