* NGSPICE file created from tg_sample_0005.ext - technology: sky130A

.subckt tg_sample_0005 VIN VGN VGP VSS VCC VOUT
X0 VSS.t17 VSS.t15 VSS.t16 VSS.t9 sky130_fd_pr__nfet_01v8 ad=1.56 pd=8.78 as=0 ps=0 w=4 l=0.28
X1 VCC.t17 VCC.t15 VCC.t16 VCC.t9 sky130_fd_pr__pfet_01v8 ad=3.12 pd=16.78 as=0 ps=0 w=8 l=0.28
X2 VOUT.t35 VOUT.t34 VOUT.t35 VCC.t1 sky130_fd_pr__pfet_01v8 ad=1.32 pd=8.33 as=0 ps=0 w=8 l=0.28
X3 VOUT.t33 VOUT.t32 VOUT.t33 VCC.t0 sky130_fd_pr__pfet_01v8 ad=1.32 pd=8.33 as=0 ps=0 w=8 l=0.28
X4 VOUT.t31 VOUT.t29 VOUT.t30 VCC.t2 sky130_fd_pr__pfet_01v8 ad=3.12 pd=16.78 as=0 ps=0 w=8 l=0.28
X5 VOUT.t28 VOUT.t27 VOUT.t28 VCC.t3 sky130_fd_pr__pfet_01v8 ad=1.32 pd=8.33 as=0 ps=0 w=8 l=0.28
X6 VOUT.t26 VOUT.t24 VOUT.t25 VSS.t1 sky130_fd_pr__nfet_01v8 ad=1.56 pd=8.78 as=0 ps=0 w=4 l=0.28
X7 VOUT.t23 VOUT.t22 VOUT.t23 VCC.t1 sky130_fd_pr__pfet_01v8 ad=1.32 pd=8.33 as=0 ps=0 w=8 l=0.28
X8 VOUT.t21 VOUT.t20 VOUT.t21 VCC.t0 sky130_fd_pr__pfet_01v8 ad=1.32 pd=8.33 as=0 ps=0 w=8 l=0.28
X9 VOUT.t19 VOUT.t17 VOUT.t18 VSS.t1 sky130_fd_pr__nfet_01v8 ad=1.56 pd=8.78 as=0 ps=0 w=4 l=0.28
X10 VOUT.t16 VOUT.t15 VOUT.t16 VSS.t0 sky130_fd_pr__nfet_01v8 ad=0.66 pd=4.33 as=0 ps=0 w=4 l=0.28
X11 VOUT.t14 VOUT.t13 VOUT.t14 VCC.t3 sky130_fd_pr__pfet_01v8 ad=1.32 pd=8.33 as=0 ps=0 w=8 l=0.28
X12 VSS.t14 VSS.t12 VSS.t13 VSS.t5 sky130_fd_pr__nfet_01v8 ad=1.56 pd=8.78 as=0 ps=0 w=4 l=0.28
X13 VSS.t11 VSS.t8 VSS.t10 VSS.t9 sky130_fd_pr__nfet_01v8 ad=1.56 pd=8.78 as=0 ps=0 w=4 l=0.28
X14 VOUT.t12 VOUT.t11 VOUT.t12 VSS.t2 sky130_fd_pr__nfet_01v8 ad=0.66 pd=4.33 as=0 ps=0 w=4 l=0.28
X15 VOUT.t10 VOUT.t9 VOUT.t10 VSS.t3 sky130_fd_pr__nfet_01v8 ad=0.66 pd=4.33 as=0 ps=0 w=4 l=0.28
X16 VSS.t7 VSS.t4 VSS.t6 VSS.t5 sky130_fd_pr__nfet_01v8 ad=1.56 pd=8.78 as=0 ps=0 w=4 l=0.28
X17 VOUT.t8 VOUT.t7 VOUT.t8 VSS.t0 sky130_fd_pr__nfet_01v8 ad=0.66 pd=4.33 as=0 ps=0 w=4 l=0.28
X18 VOUT.t6 VOUT.t5 VOUT.t6 VSS.t2 sky130_fd_pr__nfet_01v8 ad=0.66 pd=4.33 as=0 ps=0 w=4 l=0.28
X19 VCC.t14 VCC.t12 VCC.t13 VCC.t5 sky130_fd_pr__pfet_01v8 ad=3.12 pd=16.78 as=0 ps=0 w=8 l=0.28
X20 VCC.t11 VCC.t8 VCC.t10 VCC.t9 sky130_fd_pr__pfet_01v8 ad=3.12 pd=16.78 as=0 ps=0 w=8 l=0.28
X21 VOUT.t4 VOUT.t3 VOUT.t4 VSS.t3 sky130_fd_pr__nfet_01v8 ad=0.66 pd=4.33 as=0 ps=0 w=4 l=0.28
X22 VCC.t7 VCC.t4 VCC.t6 VCC.t5 sky130_fd_pr__pfet_01v8 ad=3.12 pd=16.78 as=0 ps=0 w=8 l=0.28
X23 VOUT.t2 VOUT.t0 VOUT.t1 VCC.t2 sky130_fd_pr__pfet_01v8 ad=3.12 pd=16.78 as=0 ps=0 w=8 l=0.28
R0 VSS.n764 VSS.n150 4974.43
R1 VSS.n812 VSS.n811 4974.43
R2 VSS.n771 VSS.n150 2972.97
R3 VSS.n772 VSS.n771 2972.97
R4 VSS.n773 VSS.n772 2972.97
R5 VSS.n773 VSS.n144 2972.97
R6 VSS.n781 VSS.n144 2972.97
R7 VSS.n782 VSS.n781 2972.97
R8 VSS.n783 VSS.n782 2972.97
R9 VSS.n783 VSS.n138 2972.97
R10 VSS.n791 VSS.n138 2972.97
R11 VSS.n792 VSS.n791 2972.97
R12 VSS.n793 VSS.n792 2972.97
R13 VSS.n793 VSS.n132 2972.97
R14 VSS.n801 VSS.n132 2972.97
R15 VSS.n802 VSS.n801 2972.97
R16 VSS.n803 VSS.n802 2972.97
R17 VSS.n803 VSS.n126 2972.97
R18 VSS.n811 VSS.n126 2972.97
R19 VSS.n764 VSS.n763 1719.54
R20 VSS.n763 VSS.n762 1719.54
R21 VSS.n762 VSS.n155 1719.54
R22 VSS.n756 VSS.n155 1719.54
R23 VSS.n756 VSS.n755 1719.54
R24 VSS.n755 VSS.n754 1719.54
R25 VSS.n754 VSS.n159 1719.54
R26 VSS.n748 VSS.n159 1719.54
R27 VSS.n748 VSS.n747 1719.54
R28 VSS.n747 VSS.n746 1719.54
R29 VSS.n746 VSS.n163 1719.54
R30 VSS.n740 VSS.n163 1719.54
R31 VSS.n740 VSS.n739 1719.54
R32 VSS.n739 VSS.n738 1719.54
R33 VSS.n738 VSS.n167 1719.54
R34 VSS.n732 VSS.n167 1719.54
R35 VSS.n732 VSS.n731 1719.54
R36 VSS.n731 VSS.n730 1719.54
R37 VSS.n730 VSS.n171 1719.54
R38 VSS.n724 VSS.n171 1719.54
R39 VSS.n724 VSS.n723 1719.54
R40 VSS.n723 VSS.n722 1719.54
R41 VSS.n722 VSS.n175 1719.54
R42 VSS.n716 VSS.n175 1719.54
R43 VSS.n716 VSS.n715 1719.54
R44 VSS.n715 VSS.n714 1719.54
R45 VSS.n714 VSS.n179 1719.54
R46 VSS.n708 VSS.n179 1719.54
R47 VSS.n708 VSS.n707 1719.54
R48 VSS.n707 VSS.n706 1719.54
R49 VSS.n706 VSS.n183 1719.54
R50 VSS.n700 VSS.n183 1719.54
R51 VSS.n700 VSS.n699 1719.54
R52 VSS.n699 VSS.n698 1719.54
R53 VSS.n698 VSS.n187 1719.54
R54 VSS.n692 VSS.n187 1719.54
R55 VSS.n692 VSS.n691 1719.54
R56 VSS.n691 VSS.n690 1719.54
R57 VSS.n690 VSS.n191 1719.54
R58 VSS.n684 VSS.n191 1719.54
R59 VSS.n684 VSS.n683 1719.54
R60 VSS.n683 VSS.n682 1719.54
R61 VSS.n682 VSS.n195 1719.54
R62 VSS.n676 VSS.n195 1719.54
R63 VSS.n676 VSS.n675 1719.54
R64 VSS.n675 VSS.n674 1719.54
R65 VSS.n674 VSS.n199 1719.54
R66 VSS.n668 VSS.n199 1719.54
R67 VSS.n668 VSS.n667 1719.54
R68 VSS.n667 VSS.n666 1719.54
R69 VSS.n666 VSS.n203 1719.54
R70 VSS.n660 VSS.n203 1719.54
R71 VSS.n660 VSS.n659 1719.54
R72 VSS.n659 VSS.n658 1719.54
R73 VSS.n658 VSS.n207 1719.54
R74 VSS.n652 VSS.n207 1719.54
R75 VSS.n652 VSS.n651 1719.54
R76 VSS.n651 VSS.n650 1719.54
R77 VSS.n650 VSS.n211 1719.54
R78 VSS.n644 VSS.n211 1719.54
R79 VSS.n644 VSS.n643 1719.54
R80 VSS.n643 VSS.n642 1719.54
R81 VSS.n642 VSS.n215 1719.54
R82 VSS.n636 VSS.n215 1719.54
R83 VSS.n636 VSS.n635 1719.54
R84 VSS.n813 VSS.n812 1719.54
R85 VSS.n813 VSS.n122 1719.54
R86 VSS.n819 VSS.n122 1719.54
R87 VSS.n820 VSS.n819 1719.54
R88 VSS.n821 VSS.n820 1719.54
R89 VSS.n821 VSS.n118 1719.54
R90 VSS.n827 VSS.n118 1719.54
R91 VSS.n828 VSS.n827 1719.54
R92 VSS.n829 VSS.n828 1719.54
R93 VSS.n829 VSS.n114 1719.54
R94 VSS.n835 VSS.n114 1719.54
R95 VSS.n836 VSS.n835 1719.54
R96 VSS.n837 VSS.n836 1719.54
R97 VSS.n837 VSS.n110 1719.54
R98 VSS.n843 VSS.n110 1719.54
R99 VSS.n844 VSS.n843 1719.54
R100 VSS.n845 VSS.n844 1719.54
R101 VSS.n845 VSS.n106 1719.54
R102 VSS.n851 VSS.n106 1719.54
R103 VSS.n852 VSS.n851 1719.54
R104 VSS.n853 VSS.n852 1719.54
R105 VSS.n853 VSS.n102 1719.54
R106 VSS.n859 VSS.n102 1719.54
R107 VSS.n860 VSS.n859 1719.54
R108 VSS.n861 VSS.n860 1719.54
R109 VSS.n861 VSS.n98 1719.54
R110 VSS.n867 VSS.n98 1719.54
R111 VSS.n868 VSS.n867 1719.54
R112 VSS.n869 VSS.n868 1719.54
R113 VSS.n869 VSS.n94 1719.54
R114 VSS.n875 VSS.n94 1719.54
R115 VSS.n876 VSS.n875 1719.54
R116 VSS.n877 VSS.n876 1719.54
R117 VSS.n877 VSS.n90 1719.54
R118 VSS.n883 VSS.n90 1719.54
R119 VSS.n884 VSS.n883 1719.54
R120 VSS.n885 VSS.n884 1719.54
R121 VSS.n885 VSS.n86 1719.54
R122 VSS.n891 VSS.n86 1719.54
R123 VSS.n892 VSS.n891 1719.54
R124 VSS.n893 VSS.n892 1719.54
R125 VSS.n893 VSS.n82 1719.54
R126 VSS.n899 VSS.n82 1719.54
R127 VSS.n900 VSS.n899 1719.54
R128 VSS.n901 VSS.n900 1719.54
R129 VSS.n901 VSS.n78 1719.54
R130 VSS.n907 VSS.n78 1719.54
R131 VSS.n908 VSS.n907 1719.54
R132 VSS.n909 VSS.n908 1719.54
R133 VSS.n909 VSS.n74 1719.54
R134 VSS.n915 VSS.n74 1719.54
R135 VSS.n916 VSS.n915 1719.54
R136 VSS.n917 VSS.n916 1719.54
R137 VSS.n917 VSS.n70 1719.54
R138 VSS.n923 VSS.n70 1719.54
R139 VSS.n924 VSS.n923 1719.54
R140 VSS.n925 VSS.n924 1719.54
R141 VSS.n925 VSS.n66 1719.54
R142 VSS.n931 VSS.n66 1719.54
R143 VSS.n932 VSS.n931 1719.54
R144 VSS.n933 VSS.n932 1719.54
R145 VSS.n933 VSS.n62 1719.54
R146 VSS.n940 VSS.n62 1719.54
R147 VSS.n941 VSS.n940 1719.54
R148 VSS.n942 VSS.n941 1719.54
R149 VSS.n765 VSS.n151 622.232
R150 VSS.n810 VSS.n125 622.232
R151 VSS.n1033 VSS.n34 622.232
R152 VSS.n632 VSS.n221 622.232
R153 VSS.n480 VSS.n339 610.22
R154 VSS.n557 VSS.n554 610.22
R155 VSS.n603 VSS.n435 610.22
R156 VSS.n1037 VSS.n10 610.22
R157 VSS.n766 VSS.n765 585
R158 VSS.n765 VSS.n764 585
R159 VSS.n154 VSS.n153 585
R160 VSS.n763 VSS.n154 585
R161 VSS.n761 VSS.n760 585
R162 VSS.n762 VSS.n761 585
R163 VSS.n759 VSS.n156 585
R164 VSS.n156 VSS.n155 585
R165 VSS.n758 VSS.n757 585
R166 VSS.n757 VSS.n756 585
R167 VSS.n158 VSS.n157 585
R168 VSS.n755 VSS.n158 585
R169 VSS.n753 VSS.n752 585
R170 VSS.n754 VSS.n753 585
R171 VSS.n751 VSS.n160 585
R172 VSS.n160 VSS.n159 585
R173 VSS.n750 VSS.n749 585
R174 VSS.n749 VSS.n748 585
R175 VSS.n162 VSS.n161 585
R176 VSS.n747 VSS.n162 585
R177 VSS.n745 VSS.n744 585
R178 VSS.n746 VSS.n745 585
R179 VSS.n743 VSS.n164 585
R180 VSS.n164 VSS.n163 585
R181 VSS.n742 VSS.n741 585
R182 VSS.n741 VSS.n740 585
R183 VSS.n166 VSS.n165 585
R184 VSS.n739 VSS.n166 585
R185 VSS.n737 VSS.n736 585
R186 VSS.n738 VSS.n737 585
R187 VSS.n735 VSS.n168 585
R188 VSS.n168 VSS.n167 585
R189 VSS.n734 VSS.n733 585
R190 VSS.n733 VSS.n732 585
R191 VSS.n170 VSS.n169 585
R192 VSS.n731 VSS.n170 585
R193 VSS.n729 VSS.n728 585
R194 VSS.n730 VSS.n729 585
R195 VSS.n727 VSS.n172 585
R196 VSS.n172 VSS.n171 585
R197 VSS.n726 VSS.n725 585
R198 VSS.n725 VSS.n724 585
R199 VSS.n174 VSS.n173 585
R200 VSS.n723 VSS.n174 585
R201 VSS.n721 VSS.n720 585
R202 VSS.n722 VSS.n721 585
R203 VSS.n719 VSS.n176 585
R204 VSS.n176 VSS.n175 585
R205 VSS.n718 VSS.n717 585
R206 VSS.n717 VSS.n716 585
R207 VSS.n178 VSS.n177 585
R208 VSS.n715 VSS.n178 585
R209 VSS.n713 VSS.n712 585
R210 VSS.n714 VSS.n713 585
R211 VSS.n711 VSS.n180 585
R212 VSS.n180 VSS.n179 585
R213 VSS.n710 VSS.n709 585
R214 VSS.n709 VSS.n708 585
R215 VSS.n182 VSS.n181 585
R216 VSS.n707 VSS.n182 585
R217 VSS.n705 VSS.n704 585
R218 VSS.n706 VSS.n705 585
R219 VSS.n703 VSS.n184 585
R220 VSS.n184 VSS.n183 585
R221 VSS.n702 VSS.n701 585
R222 VSS.n701 VSS.n700 585
R223 VSS.n186 VSS.n185 585
R224 VSS.n699 VSS.n186 585
R225 VSS.n697 VSS.n696 585
R226 VSS.n698 VSS.n697 585
R227 VSS.n695 VSS.n188 585
R228 VSS.n188 VSS.n187 585
R229 VSS.n694 VSS.n693 585
R230 VSS.n693 VSS.n692 585
R231 VSS.n190 VSS.n189 585
R232 VSS.n691 VSS.n190 585
R233 VSS.n689 VSS.n688 585
R234 VSS.n690 VSS.n689 585
R235 VSS.n687 VSS.n192 585
R236 VSS.n192 VSS.n191 585
R237 VSS.n686 VSS.n685 585
R238 VSS.n685 VSS.n684 585
R239 VSS.n194 VSS.n193 585
R240 VSS.n683 VSS.n194 585
R241 VSS.n681 VSS.n680 585
R242 VSS.n682 VSS.n681 585
R243 VSS.n679 VSS.n196 585
R244 VSS.n196 VSS.n195 585
R245 VSS.n678 VSS.n677 585
R246 VSS.n677 VSS.n676 585
R247 VSS.n198 VSS.n197 585
R248 VSS.n675 VSS.n198 585
R249 VSS.n673 VSS.n672 585
R250 VSS.n674 VSS.n673 585
R251 VSS.n671 VSS.n200 585
R252 VSS.n200 VSS.n199 585
R253 VSS.n670 VSS.n669 585
R254 VSS.n669 VSS.n668 585
R255 VSS.n202 VSS.n201 585
R256 VSS.n667 VSS.n202 585
R257 VSS.n665 VSS.n664 585
R258 VSS.n666 VSS.n665 585
R259 VSS.n663 VSS.n204 585
R260 VSS.n204 VSS.n203 585
R261 VSS.n662 VSS.n661 585
R262 VSS.n661 VSS.n660 585
R263 VSS.n206 VSS.n205 585
R264 VSS.n659 VSS.n206 585
R265 VSS.n657 VSS.n656 585
R266 VSS.n658 VSS.n657 585
R267 VSS.n655 VSS.n208 585
R268 VSS.n208 VSS.n207 585
R269 VSS.n654 VSS.n653 585
R270 VSS.n653 VSS.n652 585
R271 VSS.n210 VSS.n209 585
R272 VSS.n651 VSS.n210 585
R273 VSS.n649 VSS.n648 585
R274 VSS.n650 VSS.n649 585
R275 VSS.n647 VSS.n212 585
R276 VSS.n212 VSS.n211 585
R277 VSS.n646 VSS.n645 585
R278 VSS.n645 VSS.n644 585
R279 VSS.n214 VSS.n213 585
R280 VSS.n643 VSS.n214 585
R281 VSS.n641 VSS.n640 585
R282 VSS.n642 VSS.n641 585
R283 VSS.n639 VSS.n216 585
R284 VSS.n216 VSS.n215 585
R285 VSS.n638 VSS.n637 585
R286 VSS.n637 VSS.n636 585
R287 VSS.n218 VSS.n217 585
R288 VSS.n635 VSS.n218 585
R289 VSS.n152 VSS.n151 585
R290 VSS.n151 VSS.n150 585
R291 VSS.n770 VSS.n769 585
R292 VSS.n771 VSS.n770 585
R293 VSS.n149 VSS.n148 585
R294 VSS.n772 VSS.n149 585
R295 VSS.n775 VSS.n774 585
R296 VSS.n774 VSS.n773 585
R297 VSS.n146 VSS.n145 585
R298 VSS.n145 VSS.n144 585
R299 VSS.n780 VSS.n779 585
R300 VSS.n781 VSS.n780 585
R301 VSS.n143 VSS.n142 585
R302 VSS.n782 VSS.n143 585
R303 VSS.n785 VSS.n784 585
R304 VSS.n784 VSS.n783 585
R305 VSS.n140 VSS.n139 585
R306 VSS.n139 VSS.n138 585
R307 VSS.n790 VSS.n789 585
R308 VSS.n791 VSS.n790 585
R309 VSS.n137 VSS.n136 585
R310 VSS.n792 VSS.n137 585
R311 VSS.n795 VSS.n794 585
R312 VSS.n794 VSS.n793 585
R313 VSS.n134 VSS.n133 585
R314 VSS.n133 VSS.n132 585
R315 VSS.n800 VSS.n799 585
R316 VSS.n801 VSS.n800 585
R317 VSS.n131 VSS.n130 585
R318 VSS.n802 VSS.n131 585
R319 VSS.n805 VSS.n804 585
R320 VSS.n804 VSS.n803 585
R321 VSS.n128 VSS.n127 585
R322 VSS.n127 VSS.n126 585
R323 VSS.n810 VSS.n809 585
R324 VSS.n811 VSS.n810 585
R325 VSS.n943 VSS.n60 585
R326 VSS.n943 VSS.n942 585
R327 VSS.n937 VSS.n61 585
R328 VSS.n941 VSS.n61 585
R329 VSS.n939 VSS.n938 585
R330 VSS.n940 VSS.n939 585
R331 VSS.n936 VSS.n63 585
R332 VSS.n63 VSS.n62 585
R333 VSS.n935 VSS.n934 585
R334 VSS.n934 VSS.n933 585
R335 VSS.n65 VSS.n64 585
R336 VSS.n932 VSS.n65 585
R337 VSS.n930 VSS.n929 585
R338 VSS.n931 VSS.n930 585
R339 VSS.n928 VSS.n67 585
R340 VSS.n67 VSS.n66 585
R341 VSS.n927 VSS.n926 585
R342 VSS.n926 VSS.n925 585
R343 VSS.n69 VSS.n68 585
R344 VSS.n924 VSS.n69 585
R345 VSS.n922 VSS.n921 585
R346 VSS.n923 VSS.n922 585
R347 VSS.n920 VSS.n71 585
R348 VSS.n71 VSS.n70 585
R349 VSS.n919 VSS.n918 585
R350 VSS.n918 VSS.n917 585
R351 VSS.n73 VSS.n72 585
R352 VSS.n916 VSS.n73 585
R353 VSS.n914 VSS.n913 585
R354 VSS.n915 VSS.n914 585
R355 VSS.n912 VSS.n75 585
R356 VSS.n75 VSS.n74 585
R357 VSS.n911 VSS.n910 585
R358 VSS.n910 VSS.n909 585
R359 VSS.n77 VSS.n76 585
R360 VSS.n908 VSS.n77 585
R361 VSS.n906 VSS.n905 585
R362 VSS.n907 VSS.n906 585
R363 VSS.n904 VSS.n79 585
R364 VSS.n79 VSS.n78 585
R365 VSS.n903 VSS.n902 585
R366 VSS.n902 VSS.n901 585
R367 VSS.n81 VSS.n80 585
R368 VSS.n900 VSS.n81 585
R369 VSS.n898 VSS.n897 585
R370 VSS.n899 VSS.n898 585
R371 VSS.n896 VSS.n83 585
R372 VSS.n83 VSS.n82 585
R373 VSS.n895 VSS.n894 585
R374 VSS.n894 VSS.n893 585
R375 VSS.n85 VSS.n84 585
R376 VSS.n892 VSS.n85 585
R377 VSS.n890 VSS.n889 585
R378 VSS.n891 VSS.n890 585
R379 VSS.n888 VSS.n87 585
R380 VSS.n87 VSS.n86 585
R381 VSS.n887 VSS.n886 585
R382 VSS.n886 VSS.n885 585
R383 VSS.n89 VSS.n88 585
R384 VSS.n884 VSS.n89 585
R385 VSS.n882 VSS.n881 585
R386 VSS.n883 VSS.n882 585
R387 VSS.n880 VSS.n91 585
R388 VSS.n91 VSS.n90 585
R389 VSS.n879 VSS.n878 585
R390 VSS.n878 VSS.n877 585
R391 VSS.n93 VSS.n92 585
R392 VSS.n876 VSS.n93 585
R393 VSS.n874 VSS.n873 585
R394 VSS.n875 VSS.n874 585
R395 VSS.n872 VSS.n95 585
R396 VSS.n95 VSS.n94 585
R397 VSS.n871 VSS.n870 585
R398 VSS.n870 VSS.n869 585
R399 VSS.n97 VSS.n96 585
R400 VSS.n868 VSS.n97 585
R401 VSS.n866 VSS.n865 585
R402 VSS.n867 VSS.n866 585
R403 VSS.n864 VSS.n99 585
R404 VSS.n99 VSS.n98 585
R405 VSS.n863 VSS.n862 585
R406 VSS.n862 VSS.n861 585
R407 VSS.n101 VSS.n100 585
R408 VSS.n860 VSS.n101 585
R409 VSS.n858 VSS.n857 585
R410 VSS.n859 VSS.n858 585
R411 VSS.n856 VSS.n103 585
R412 VSS.n103 VSS.n102 585
R413 VSS.n855 VSS.n854 585
R414 VSS.n854 VSS.n853 585
R415 VSS.n105 VSS.n104 585
R416 VSS.n852 VSS.n105 585
R417 VSS.n850 VSS.n849 585
R418 VSS.n851 VSS.n850 585
R419 VSS.n848 VSS.n107 585
R420 VSS.n107 VSS.n106 585
R421 VSS.n847 VSS.n846 585
R422 VSS.n846 VSS.n845 585
R423 VSS.n109 VSS.n108 585
R424 VSS.n844 VSS.n109 585
R425 VSS.n842 VSS.n841 585
R426 VSS.n843 VSS.n842 585
R427 VSS.n840 VSS.n111 585
R428 VSS.n111 VSS.n110 585
R429 VSS.n839 VSS.n838 585
R430 VSS.n838 VSS.n837 585
R431 VSS.n113 VSS.n112 585
R432 VSS.n836 VSS.n113 585
R433 VSS.n834 VSS.n833 585
R434 VSS.n835 VSS.n834 585
R435 VSS.n832 VSS.n115 585
R436 VSS.n115 VSS.n114 585
R437 VSS.n831 VSS.n830 585
R438 VSS.n830 VSS.n829 585
R439 VSS.n117 VSS.n116 585
R440 VSS.n828 VSS.n117 585
R441 VSS.n826 VSS.n825 585
R442 VSS.n827 VSS.n826 585
R443 VSS.n824 VSS.n119 585
R444 VSS.n119 VSS.n118 585
R445 VSS.n823 VSS.n822 585
R446 VSS.n822 VSS.n821 585
R447 VSS.n121 VSS.n120 585
R448 VSS.n820 VSS.n121 585
R449 VSS.n818 VSS.n817 585
R450 VSS.n819 VSS.n818 585
R451 VSS.n816 VSS.n123 585
R452 VSS.n123 VSS.n122 585
R453 VSS.n815 VSS.n814 585
R454 VSS.n814 VSS.n813 585
R455 VSS.n125 VSS.n124 585
R456 VSS.n812 VSS.n125 585
R457 VSS.n245 VSS.n244 585
R458 VSS.n248 VSS.n247 585
R459 VSS.n249 VSS.n243 585
R460 VSS.n243 VSS.n219 585
R461 VSS.n251 VSS.n250 585
R462 VSS.n253 VSS.n242 585
R463 VSS.n256 VSS.n255 585
R464 VSS.n257 VSS.n241 585
R465 VSS.n259 VSS.n258 585
R466 VSS.n261 VSS.n240 585
R467 VSS.n264 VSS.n263 585
R468 VSS.n265 VSS.n239 585
R469 VSS.n267 VSS.n266 585
R470 VSS.n269 VSS.n238 585
R471 VSS.n272 VSS.n271 585
R472 VSS.n273 VSS.n237 585
R473 VSS.n275 VSS.n274 585
R474 VSS.n277 VSS.n236 585
R475 VSS.n280 VSS.n279 585
R476 VSS.n281 VSS.n235 585
R477 VSS.n283 VSS.n282 585
R478 VSS.n285 VSS.n234 585
R479 VSS.n288 VSS.n287 585
R480 VSS.n289 VSS.n233 585
R481 VSS.n291 VSS.n290 585
R482 VSS.n293 VSS.n232 585
R483 VSS.n296 VSS.n295 585
R484 VSS.n297 VSS.n231 585
R485 VSS.n299 VSS.n298 585
R486 VSS.n301 VSS.n230 585
R487 VSS.n304 VSS.n303 585
R488 VSS.n305 VSS.n229 585
R489 VSS.n307 VSS.n306 585
R490 VSS.n309 VSS.n228 585
R491 VSS.n312 VSS.n311 585
R492 VSS.n313 VSS.n227 585
R493 VSS.n315 VSS.n314 585
R494 VSS.n317 VSS.n226 585
R495 VSS.n320 VSS.n319 585
R496 VSS.n321 VSS.n225 585
R497 VSS.n323 VSS.n322 585
R498 VSS.n325 VSS.n224 585
R499 VSS.n326 VSS.n223 585
R500 VSS.n329 VSS.n328 585
R501 VSS.n330 VSS.n221 585
R502 VSS.n221 VSS.n219 585
R503 VSS.n1030 VSS.n34 585
R504 VSS.n1029 VSS.n1028 585
R505 VSS.n38 VSS.n37 585
R506 VSS.n1024 VSS.n1023 585
R507 VSS.n1022 VSS.n59 585
R508 VSS.n1021 VSS.n1020 585
R509 VSS.n1019 VSS.n1018 585
R510 VSS.n1017 VSS.n1016 585
R511 VSS.n1015 VSS.n1014 585
R512 VSS.n1013 VSS.n1012 585
R513 VSS.n1011 VSS.n1010 585
R514 VSS.n1009 VSS.n1008 585
R515 VSS.n1007 VSS.n1006 585
R516 VSS.n1005 VSS.n1004 585
R517 VSS.n1003 VSS.n1002 585
R518 VSS.n1001 VSS.n1000 585
R519 VSS.n999 VSS.n998 585
R520 VSS.n997 VSS.n996 585
R521 VSS.n995 VSS.n994 585
R522 VSS.n993 VSS.n992 585
R523 VSS.n991 VSS.n990 585
R524 VSS.n989 VSS.n988 585
R525 VSS.n987 VSS.n986 585
R526 VSS.n985 VSS.n984 585
R527 VSS.n983 VSS.n982 585
R528 VSS.n981 VSS.n980 585
R529 VSS.n979 VSS.n978 585
R530 VSS.n977 VSS.n976 585
R531 VSS.n975 VSS.n974 585
R532 VSS.n973 VSS.n972 585
R533 VSS.n971 VSS.n970 585
R534 VSS.n969 VSS.n968 585
R535 VSS.n967 VSS.n966 585
R536 VSS.n965 VSS.n964 585
R537 VSS.n963 VSS.n962 585
R538 VSS.n961 VSS.n960 585
R539 VSS.n959 VSS.n958 585
R540 VSS.n957 VSS.n956 585
R541 VSS.n955 VSS.n954 585
R542 VSS.n953 VSS.n952 585
R543 VSS.n951 VSS.n950 585
R544 VSS.n949 VSS.n948 585
R545 VSS.n947 VSS.n946 585
R546 VSS.n945 VSS.n944 585
R547 VSS.n1033 VSS.n1032 585
R548 VSS.n1034 VSS.n1033 585
R549 VSS.n35 VSS.n33 585
R550 VSS.n33 VSS.n13 585
R551 VSS.n601 VSS.n600 585
R552 VSS.n602 VSS.n601 585
R553 VSS.n438 VSS.n437 585
R554 VSS.n437 VSS.n436 585
R555 VSS.n596 VSS.n595 585
R556 VSS.n595 VSS.n594 585
R557 VSS.n441 VSS.n440 585
R558 VSS.n593 VSS.n441 585
R559 VSS.n589 VSS.n588 585
R560 VSS.n590 VSS.n589 585
R561 VSS.n443 VSS.n442 585
R562 VSS.n581 VSS.n442 585
R563 VSS.n584 VSS.n583 585
R564 VSS.n583 VSS.n582 585
R565 VSS.n446 VSS.n445 585
R566 VSS.n580 VSS.n446 585
R567 VSS.n575 VSS.n574 585
R568 VSS.n576 VSS.n575 585
R569 VSS.n450 VSS.n449 585
R570 VSS.n567 VSS.n449 585
R571 VSS.n570 VSS.n569 585
R572 VSS.n569 VSS.n568 585
R573 VSS.n336 VSS.n334 585
R574 VSS.n338 VSS.n336 585
R575 VSS.n626 VSS.n625 585
R576 VSS.n625 VSS.n624 585
R577 VSS.n335 VSS.n332 585
R578 VSS.n556 VSS.n335 585
R579 VSS.n630 VSS.n222 585
R580 VSS.n555 VSS.n222 585
R581 VSS.n632 VSS.n631 585
R582 VSS.n633 VSS.n632 585
R583 VSS.n604 VSS.n603 585
R584 VSS.n603 VSS.n602 585
R585 VSS.n605 VSS.n356 585
R586 VSS.n436 VSS.n356 585
R587 VSS.n606 VSS.n355 585
R588 VSS.n594 VSS.n355 585
R589 VSS.n592 VSS.n353 585
R590 VSS.n593 VSS.n592 585
R591 VSS.n610 VSS.n352 585
R592 VSS.n590 VSS.n352 585
R593 VSS.n611 VSS.n351 585
R594 VSS.n581 VSS.n351 585
R595 VSS.n612 VSS.n350 585
R596 VSS.n582 VSS.n350 585
R597 VSS.n579 VSS.n348 585
R598 VSS.n580 VSS.n579 585
R599 VSS.n616 VSS.n347 585
R600 VSS.n576 VSS.n347 585
R601 VSS.n617 VSS.n346 585
R602 VSS.n567 VSS.n346 585
R603 VSS.n618 VSS.n345 585
R604 VSS.n568 VSS.n345 585
R605 VSS.n342 VSS.n340 585
R606 VSS.n340 VSS.n338 585
R607 VSS.n623 VSS.n622 585
R608 VSS.n624 VSS.n623 585
R609 VSS.n341 VSS.n339 585
R610 VSS.n556 VSS.n339 585
R611 VSS.n1040 VSS.n10 585
R612 VSS.n602 VSS.n10 585
R613 VSS.n1041 VSS.n9 585
R614 VSS.n436 VSS.n9 585
R615 VSS.n1042 VSS.n8 585
R616 VSS.n594 VSS.n8 585
R617 VSS.n591 VSS.n6 585
R618 VSS.n593 VSS.n591 585
R619 VSS.n1046 VSS.n5 585
R620 VSS.n590 VSS.n5 585
R621 VSS.n1047 VSS.n4 585
R622 VSS.n581 VSS.n4 585
R623 VSS.n1048 VSS.n3 585
R624 VSS.n582 VSS.n3 585
R625 VSS.n578 VSS.n2 585
R626 VSS.n580 VSS.n578 585
R627 VSS.n577 VSS.n448 585
R628 VSS.n577 VSS.n576 585
R629 VSS.n453 VSS.n447 585
R630 VSS.n567 VSS.n447 585
R631 VSS.n566 VSS.n565 585
R632 VSS.n568 VSS.n566 585
R633 VSS.n452 VSS.n451 585
R634 VSS.n451 VSS.n338 585
R635 VSS.n559 VSS.n337 585
R636 VSS.n624 VSS.n337 585
R637 VSS.n558 VSS.n557 585
R638 VSS.n557 VSS.n556 585
R639 VSS.n1038 VSS.n1037 585
R640 VSS.n12 VSS.n11 585
R641 VSS.n363 VSS.n362 585
R642 VSS.n366 VSS.n365 585
R643 VSS.n368 VSS.n367 585
R644 VSS.n370 VSS.n369 585
R645 VSS.n372 VSS.n371 585
R646 VSS.n374 VSS.n373 585
R647 VSS.n376 VSS.n375 585
R648 VSS.n378 VSS.n377 585
R649 VSS.n380 VSS.n379 585
R650 VSS.n382 VSS.n381 585
R651 VSS.n384 VSS.n383 585
R652 VSS.n386 VSS.n385 585
R653 VSS.n388 VSS.n387 585
R654 VSS.n390 VSS.n389 585
R655 VSS.n392 VSS.n391 585
R656 VSS.n394 VSS.n393 585
R657 VSS.n396 VSS.n395 585
R658 VSS.n398 VSS.n397 585
R659 VSS.n400 VSS.n399 585
R660 VSS.n403 VSS.n402 585
R661 VSS.n405 VSS.n404 585
R662 VSS.n407 VSS.n406 585
R663 VSS.n409 VSS.n408 585
R664 VSS.n411 VSS.n410 585
R665 VSS.n413 VSS.n412 585
R666 VSS.n415 VSS.n414 585
R667 VSS.n417 VSS.n416 585
R668 VSS.n419 VSS.n418 585
R669 VSS.n421 VSS.n420 585
R670 VSS.n423 VSS.n422 585
R671 VSS.n425 VSS.n424 585
R672 VSS.n427 VSS.n426 585
R673 VSS.n429 VSS.n428 585
R674 VSS.n431 VSS.n430 585
R675 VSS.n433 VSS.n432 585
R676 VSS.n435 VSS.n434 585
R677 VSS.n480 VSS.n479 585
R678 VSS.n482 VSS.n478 585
R679 VSS.n483 VSS.n477 585
R680 VSS.n483 VSS.n220 585
R681 VSS.n486 VSS.n485 585
R682 VSS.n487 VSS.n476 585
R683 VSS.n489 VSS.n488 585
R684 VSS.n491 VSS.n475 585
R685 VSS.n494 VSS.n493 585
R686 VSS.n495 VSS.n474 585
R687 VSS.n497 VSS.n496 585
R688 VSS.n499 VSS.n473 585
R689 VSS.n502 VSS.n501 585
R690 VSS.n503 VSS.n472 585
R691 VSS.n505 VSS.n504 585
R692 VSS.n507 VSS.n471 585
R693 VSS.n510 VSS.n509 585
R694 VSS.n511 VSS.n468 585
R695 VSS.n514 VSS.n513 585
R696 VSS.n516 VSS.n467 585
R697 VSS.n519 VSS.n518 585
R698 VSS.n520 VSS.n466 585
R699 VSS.n522 VSS.n521 585
R700 VSS.n524 VSS.n465 585
R701 VSS.n527 VSS.n526 585
R702 VSS.n528 VSS.n464 585
R703 VSS.n530 VSS.n529 585
R704 VSS.n532 VSS.n463 585
R705 VSS.n535 VSS.n534 585
R706 VSS.n536 VSS.n462 585
R707 VSS.n538 VSS.n537 585
R708 VSS.n540 VSS.n461 585
R709 VSS.n543 VSS.n542 585
R710 VSS.n544 VSS.n460 585
R711 VSS.n546 VSS.n545 585
R712 VSS.n548 VSS.n459 585
R713 VSS.n551 VSS.n550 585
R714 VSS.n552 VSS.n455 585
R715 VSS.n554 VSS.n553 585
R716 VSS.n554 VSS.n220 585
R717 VSS.n358 VSS.t4 563.422
R718 VSS.n360 VSS.t12 563.422
R719 VSS.n456 VSS.t8 563.422
R720 VSS.n469 VSS.t15 563.422
R721 VSS.n635 VSS.n634 480.461
R722 VSS.n942 VSS.n32 480.461
R723 VSS.n246 VSS.n219 256.663
R724 VSS.n252 VSS.n219 256.663
R725 VSS.n254 VSS.n219 256.663
R726 VSS.n260 VSS.n219 256.663
R727 VSS.n262 VSS.n219 256.663
R728 VSS.n268 VSS.n219 256.663
R729 VSS.n270 VSS.n219 256.663
R730 VSS.n276 VSS.n219 256.663
R731 VSS.n278 VSS.n219 256.663
R732 VSS.n284 VSS.n219 256.663
R733 VSS.n286 VSS.n219 256.663
R734 VSS.n292 VSS.n219 256.663
R735 VSS.n294 VSS.n219 256.663
R736 VSS.n300 VSS.n219 256.663
R737 VSS.n302 VSS.n219 256.663
R738 VSS.n308 VSS.n219 256.663
R739 VSS.n310 VSS.n219 256.663
R740 VSS.n316 VSS.n219 256.663
R741 VSS.n318 VSS.n219 256.663
R742 VSS.n324 VSS.n219 256.663
R743 VSS.n327 VSS.n219 256.663
R744 VSS.n1027 VSS.n1026 256.663
R745 VSS.n1026 VSS.n1025 256.663
R746 VSS.n1026 VSS.n58 256.663
R747 VSS.n1026 VSS.n57 256.663
R748 VSS.n1026 VSS.n56 256.663
R749 VSS.n1026 VSS.n55 256.663
R750 VSS.n1026 VSS.n54 256.663
R751 VSS.n1026 VSS.n53 256.663
R752 VSS.n1026 VSS.n52 256.663
R753 VSS.n1026 VSS.n51 256.663
R754 VSS.n1026 VSS.n50 256.663
R755 VSS.n1026 VSS.n49 256.663
R756 VSS.n1026 VSS.n48 256.663
R757 VSS.n1026 VSS.n47 256.663
R758 VSS.n1026 VSS.n46 256.663
R759 VSS.n1026 VSS.n45 256.663
R760 VSS.n1026 VSS.n44 256.663
R761 VSS.n1026 VSS.n43 256.663
R762 VSS.n1026 VSS.n42 256.663
R763 VSS.n1026 VSS.n41 256.663
R764 VSS.n1026 VSS.n40 256.663
R765 VSS.n1026 VSS.n39 256.663
R766 VSS.n1036 VSS.n1035 256.663
R767 VSS.n1035 VSS.n31 256.663
R768 VSS.n1035 VSS.n30 256.663
R769 VSS.n1035 VSS.n29 256.663
R770 VSS.n1035 VSS.n28 256.663
R771 VSS.n1035 VSS.n27 256.663
R772 VSS.n1035 VSS.n26 256.663
R773 VSS.n1035 VSS.n25 256.663
R774 VSS.n1035 VSS.n24 256.663
R775 VSS.n1035 VSS.n23 256.663
R776 VSS.n1035 VSS.n22 256.663
R777 VSS.n1035 VSS.n21 256.663
R778 VSS.n1035 VSS.n20 256.663
R779 VSS.n1035 VSS.n19 256.663
R780 VSS.n1035 VSS.n18 256.663
R781 VSS.n1035 VSS.n17 256.663
R782 VSS.n1035 VSS.n16 256.663
R783 VSS.n1035 VSS.n15 256.663
R784 VSS.n1035 VSS.n14 256.663
R785 VSS.n481 VSS.n220 256.663
R786 VSS.n484 VSS.n220 256.663
R787 VSS.n490 VSS.n220 256.663
R788 VSS.n492 VSS.n220 256.663
R789 VSS.n498 VSS.n220 256.663
R790 VSS.n500 VSS.n220 256.663
R791 VSS.n506 VSS.n220 256.663
R792 VSS.n508 VSS.n220 256.663
R793 VSS.n515 VSS.n220 256.663
R794 VSS.n517 VSS.n220 256.663
R795 VSS.n523 VSS.n220 256.663
R796 VSS.n525 VSS.n220 256.663
R797 VSS.n531 VSS.n220 256.663
R798 VSS.n533 VSS.n220 256.663
R799 VSS.n539 VSS.n220 256.663
R800 VSS.n541 VSS.n220 256.663
R801 VSS.n547 VSS.n220 256.663
R802 VSS.n549 VSS.n220 256.663
R803 VSS.n770 VSS.n151 240.244
R804 VSS.n770 VSS.n149 240.244
R805 VSS.n774 VSS.n149 240.244
R806 VSS.n774 VSS.n145 240.244
R807 VSS.n780 VSS.n145 240.244
R808 VSS.n780 VSS.n143 240.244
R809 VSS.n784 VSS.n143 240.244
R810 VSS.n784 VSS.n139 240.244
R811 VSS.n790 VSS.n139 240.244
R812 VSS.n790 VSS.n137 240.244
R813 VSS.n794 VSS.n137 240.244
R814 VSS.n794 VSS.n133 240.244
R815 VSS.n800 VSS.n133 240.244
R816 VSS.n800 VSS.n131 240.244
R817 VSS.n804 VSS.n131 240.244
R818 VSS.n804 VSS.n127 240.244
R819 VSS.n810 VSS.n127 240.244
R820 VSS.n632 VSS.n222 240.244
R821 VSS.n335 VSS.n222 240.244
R822 VSS.n625 VSS.n335 240.244
R823 VSS.n625 VSS.n336 240.244
R824 VSS.n569 VSS.n336 240.244
R825 VSS.n569 VSS.n449 240.244
R826 VSS.n575 VSS.n449 240.244
R827 VSS.n575 VSS.n446 240.244
R828 VSS.n583 VSS.n446 240.244
R829 VSS.n583 VSS.n442 240.244
R830 VSS.n589 VSS.n442 240.244
R831 VSS.n589 VSS.n441 240.244
R832 VSS.n595 VSS.n441 240.244
R833 VSS.n595 VSS.n437 240.244
R834 VSS.n601 VSS.n437 240.244
R835 VSS.n601 VSS.n33 240.244
R836 VSS.n1033 VSS.n33 240.244
R837 VSS.n623 VSS.n339 240.244
R838 VSS.n623 VSS.n340 240.244
R839 VSS.n345 VSS.n340 240.244
R840 VSS.n346 VSS.n345 240.244
R841 VSS.n347 VSS.n346 240.244
R842 VSS.n579 VSS.n347 240.244
R843 VSS.n579 VSS.n350 240.244
R844 VSS.n351 VSS.n350 240.244
R845 VSS.n352 VSS.n351 240.244
R846 VSS.n592 VSS.n352 240.244
R847 VSS.n592 VSS.n355 240.244
R848 VSS.n356 VSS.n355 240.244
R849 VSS.n603 VSS.n356 240.244
R850 VSS.n557 VSS.n337 240.244
R851 VSS.n451 VSS.n337 240.244
R852 VSS.n566 VSS.n451 240.244
R853 VSS.n566 VSS.n447 240.244
R854 VSS.n577 VSS.n447 240.244
R855 VSS.n578 VSS.n577 240.244
R856 VSS.n578 VSS.n3 240.244
R857 VSS.n4 VSS.n3 240.244
R858 VSS.n5 VSS.n4 240.244
R859 VSS.n591 VSS.n5 240.244
R860 VSS.n591 VSS.n8 240.244
R861 VSS.n9 VSS.n8 240.244
R862 VSS.n10 VSS.n9 240.244
R863 VSS.n634 VSS.n633 205.297
R864 VSS.n1034 VSS.n32 205.297
R865 VSS.n814 VSS.n125 163.367
R866 VSS.n814 VSS.n123 163.367
R867 VSS.n818 VSS.n123 163.367
R868 VSS.n818 VSS.n121 163.367
R869 VSS.n822 VSS.n121 163.367
R870 VSS.n822 VSS.n119 163.367
R871 VSS.n826 VSS.n119 163.367
R872 VSS.n826 VSS.n117 163.367
R873 VSS.n830 VSS.n117 163.367
R874 VSS.n830 VSS.n115 163.367
R875 VSS.n834 VSS.n115 163.367
R876 VSS.n834 VSS.n113 163.367
R877 VSS.n838 VSS.n113 163.367
R878 VSS.n838 VSS.n111 163.367
R879 VSS.n842 VSS.n111 163.367
R880 VSS.n842 VSS.n109 163.367
R881 VSS.n846 VSS.n109 163.367
R882 VSS.n846 VSS.n107 163.367
R883 VSS.n850 VSS.n107 163.367
R884 VSS.n850 VSS.n105 163.367
R885 VSS.n854 VSS.n105 163.367
R886 VSS.n854 VSS.n103 163.367
R887 VSS.n858 VSS.n103 163.367
R888 VSS.n858 VSS.n101 163.367
R889 VSS.n862 VSS.n101 163.367
R890 VSS.n862 VSS.n99 163.367
R891 VSS.n866 VSS.n99 163.367
R892 VSS.n866 VSS.n97 163.367
R893 VSS.n870 VSS.n97 163.367
R894 VSS.n870 VSS.n95 163.367
R895 VSS.n874 VSS.n95 163.367
R896 VSS.n874 VSS.n93 163.367
R897 VSS.n878 VSS.n93 163.367
R898 VSS.n878 VSS.n91 163.367
R899 VSS.n882 VSS.n91 163.367
R900 VSS.n882 VSS.n89 163.367
R901 VSS.n886 VSS.n89 163.367
R902 VSS.n886 VSS.n87 163.367
R903 VSS.n890 VSS.n87 163.367
R904 VSS.n890 VSS.n85 163.367
R905 VSS.n894 VSS.n85 163.367
R906 VSS.n894 VSS.n83 163.367
R907 VSS.n898 VSS.n83 163.367
R908 VSS.n898 VSS.n81 163.367
R909 VSS.n902 VSS.n81 163.367
R910 VSS.n902 VSS.n79 163.367
R911 VSS.n906 VSS.n79 163.367
R912 VSS.n906 VSS.n77 163.367
R913 VSS.n910 VSS.n77 163.367
R914 VSS.n910 VSS.n75 163.367
R915 VSS.n914 VSS.n75 163.367
R916 VSS.n914 VSS.n73 163.367
R917 VSS.n918 VSS.n73 163.367
R918 VSS.n918 VSS.n71 163.367
R919 VSS.n922 VSS.n71 163.367
R920 VSS.n922 VSS.n69 163.367
R921 VSS.n926 VSS.n69 163.367
R922 VSS.n926 VSS.n67 163.367
R923 VSS.n930 VSS.n67 163.367
R924 VSS.n930 VSS.n65 163.367
R925 VSS.n934 VSS.n65 163.367
R926 VSS.n934 VSS.n63 163.367
R927 VSS.n939 VSS.n63 163.367
R928 VSS.n939 VSS.n61 163.367
R929 VSS.n943 VSS.n61 163.367
R930 VSS.n944 VSS.n943 163.367
R931 VSS.n948 VSS.n947 163.367
R932 VSS.n952 VSS.n951 163.367
R933 VSS.n956 VSS.n955 163.367
R934 VSS.n960 VSS.n959 163.367
R935 VSS.n964 VSS.n963 163.367
R936 VSS.n968 VSS.n967 163.367
R937 VSS.n972 VSS.n971 163.367
R938 VSS.n976 VSS.n975 163.367
R939 VSS.n980 VSS.n979 163.367
R940 VSS.n984 VSS.n983 163.367
R941 VSS.n988 VSS.n987 163.367
R942 VSS.n992 VSS.n991 163.367
R943 VSS.n996 VSS.n995 163.367
R944 VSS.n1000 VSS.n999 163.367
R945 VSS.n1004 VSS.n1003 163.367
R946 VSS.n1008 VSS.n1007 163.367
R947 VSS.n1012 VSS.n1011 163.367
R948 VSS.n1016 VSS.n1015 163.367
R949 VSS.n1020 VSS.n1019 163.367
R950 VSS.n1024 VSS.n59 163.367
R951 VSS.n1028 VSS.n38 163.367
R952 VSS.n765 VSS.n154 163.367
R953 VSS.n761 VSS.n154 163.367
R954 VSS.n761 VSS.n156 163.367
R955 VSS.n757 VSS.n156 163.367
R956 VSS.n757 VSS.n158 163.367
R957 VSS.n753 VSS.n158 163.367
R958 VSS.n753 VSS.n160 163.367
R959 VSS.n749 VSS.n160 163.367
R960 VSS.n749 VSS.n162 163.367
R961 VSS.n745 VSS.n162 163.367
R962 VSS.n745 VSS.n164 163.367
R963 VSS.n741 VSS.n164 163.367
R964 VSS.n741 VSS.n166 163.367
R965 VSS.n737 VSS.n166 163.367
R966 VSS.n737 VSS.n168 163.367
R967 VSS.n733 VSS.n168 163.367