* NGSPICE file created from diff_pair_sample_1628.ext - technology: sky130A

.subckt diff_pair_sample_1628 VTAIL VN VP B VDD2 VDD1
X0 VTAIL.t15 VP.t0 VDD1.t5 B.t0 sky130_fd_pr__nfet_01v8 ad=1.4124 pd=8.89 as=1.4124 ps=8.89 w=8.56 l=1.03
X1 B.t20 B.t18 B.t19 B.t15 sky130_fd_pr__nfet_01v8 ad=3.3384 pd=17.9 as=0 ps=0 w=8.56 l=1.03
X2 VTAIL.t2 VN.t0 VDD2.t7 B.t2 sky130_fd_pr__nfet_01v8 ad=3.3384 pd=17.9 as=1.4124 ps=8.89 w=8.56 l=1.03
X3 VTAIL.t14 VP.t1 VDD1.t7 B.t21 sky130_fd_pr__nfet_01v8 ad=1.4124 pd=8.89 as=1.4124 ps=8.89 w=8.56 l=1.03
X4 VDD1.t2 VP.t2 VTAIL.t13 B.t6 sky130_fd_pr__nfet_01v8 ad=1.4124 pd=8.89 as=3.3384 ps=17.9 w=8.56 l=1.03
X5 VDD1.t0 VP.t3 VTAIL.t12 B.t1 sky130_fd_pr__nfet_01v8 ad=1.4124 pd=8.89 as=1.4124 ps=8.89 w=8.56 l=1.03
X6 B.t17 B.t14 B.t16 B.t15 sky130_fd_pr__nfet_01v8 ad=3.3384 pd=17.9 as=0 ps=0 w=8.56 l=1.03
X7 VDD1.t4 VP.t4 VTAIL.t11 B.t3 sky130_fd_pr__nfet_01v8 ad=1.4124 pd=8.89 as=3.3384 ps=17.9 w=8.56 l=1.03
X8 VDD2.t6 VN.t1 VTAIL.t1 B.t1 sky130_fd_pr__nfet_01v8 ad=1.4124 pd=8.89 as=1.4124 ps=8.89 w=8.56 l=1.03
X9 VTAIL.t10 VP.t5 VDD1.t3 B.t2 sky130_fd_pr__nfet_01v8 ad=3.3384 pd=17.9 as=1.4124 ps=8.89 w=8.56 l=1.03
X10 VDD2.t5 VN.t2 VTAIL.t3 B.t3 sky130_fd_pr__nfet_01v8 ad=1.4124 pd=8.89 as=3.3384 ps=17.9 w=8.56 l=1.03
X11 VTAIL.t5 VN.t3 VDD2.t4 B.t5 sky130_fd_pr__nfet_01v8 ad=3.3384 pd=17.9 as=1.4124 ps=8.89 w=8.56 l=1.03
X12 VDD1.t1 VP.t6 VTAIL.t9 B.t4 sky130_fd_pr__nfet_01v8 ad=1.4124 pd=8.89 as=1.4124 ps=8.89 w=8.56 l=1.03
X13 VTAIL.t7 VN.t4 VDD2.t3 B.t21 sky130_fd_pr__nfet_01v8 ad=1.4124 pd=8.89 as=1.4124 ps=8.89 w=8.56 l=1.03
X14 VDD2.t2 VN.t5 VTAIL.t6 B.t6 sky130_fd_pr__nfet_01v8 ad=1.4124 pd=8.89 as=3.3384 ps=17.9 w=8.56 l=1.03
X15 VDD2.t1 VN.t6 VTAIL.t4 B.t4 sky130_fd_pr__nfet_01v8 ad=1.4124 pd=8.89 as=1.4124 ps=8.89 w=8.56 l=1.03
X16 VTAIL.t0 VN.t7 VDD2.t0 B.t0 sky130_fd_pr__nfet_01v8 ad=1.4124 pd=8.89 as=1.4124 ps=8.89 w=8.56 l=1.03
X17 B.t13 B.t11 B.t12 B.t8 sky130_fd_pr__nfet_01v8 ad=3.3384 pd=17.9 as=0 ps=0 w=8.56 l=1.03
X18 VTAIL.t8 VP.t7 VDD1.t6 B.t5 sky130_fd_pr__nfet_01v8 ad=3.3384 pd=17.9 as=1.4124 ps=8.89 w=8.56 l=1.03
X19 B.t10 B.t7 B.t9 B.t8 sky130_fd_pr__nfet_01v8 ad=3.3384 pd=17.9 as=0 ps=0 w=8.56 l=1.03
R0 VP.n9 VP.t7 255.736
R1 VP.n21 VP.t5 238.894
R2 VP.n33 VP.t2 238.894
R3 VP.n18 VP.t4 238.894
R4 VP.n3 VP.t6 200.287
R5 VP.n1 VP.t0 200.287
R6 VP.n6 VP.t1 200.287
R7 VP.n8 VP.t3 200.287
R8 VP.n34 VP.n33 161.3
R9 VP.n11 VP.n10 161.3
R10 VP.n12 VP.n7 161.3
R11 VP.n14 VP.n13 161.3
R12 VP.n16 VP.n15 161.3
R13 VP.n17 VP.n5 161.3
R14 VP.n19 VP.n18 161.3
R15 VP.n32 VP.n0 161.3
R16 VP.n31 VP.n30 161.3
R17 VP.n29 VP.n28 161.3
R18 VP.n27 VP.n2 161.3
R19 VP.n26 VP.n25 161.3
R20 VP.n24 VP.n23 161.3
R21 VP.n22 VP.n4 161.3
R22 VP.n21 VP.n20 161.3
R23 VP.n23 VP.n22 54.0429
R24 VP.n32 VP.n31 54.0429
R25 VP.n17 VP.n16 54.0429
R26 VP.n9 VP.n8 45.8978
R27 VP.n10 VP.n9 43.6106
R28 VP.n20 VP.n19 41.0081
R29 VP.n27 VP.n26 40.4106
R30 VP.n28 VP.n27 40.4106
R31 VP.n13 VP.n12 40.4106
R32 VP.n12 VP.n11 40.4106
R33 VP.n23 VP.n3 15.5803
R34 VP.n31 VP.n1 15.5803
R35 VP.n16 VP.n6 15.5803
R36 VP.n26 VP.n3 8.76414
R37 VP.n28 VP.n1 8.76414
R38 VP.n13 VP.n6 8.76414
R39 VP.n11 VP.n8 8.76414
R40 VP.n22 VP.n21 3.65202
R41 VP.n33 VP.n32 3.65202
R42 VP.n18 VP.n17 3.65202
R43 VP.n10 VP.n7 0.189894
R44 VP.n14 VP.n7 0.189894
R45 VP.n15 VP.n14 0.189894
R46 VP.n15 VP.n5 0.189894
R47 VP.n19 VP.n5 0.189894
R48 VP.n20 VP.n4 0.189894
R49 VP.n24 VP.n4 0.189894
R50 VP.n25 VP.n24 0.189894
R51 VP.n25 VP.n2 0.189894
R52 VP.n29 VP.n2 0.189894
R53 VP.n30 VP.n29 0.189894
R54 VP.n30 VP.n0 0.189894
R55 VP.n34 VP.n0 0.189894
R56 VP VP.n34 0.0516364
R57 VDD1 VDD1.n0 64.8613
R58 VDD1.n3 VDD1.n2 64.7476
R59 VDD1.n3 VDD1.n1 64.7476
R60 VDD1.n5 VDD1.n4 64.2168
R61 VDD1.n5 VDD1.n3 36.9535
R62 VDD1.n4 VDD1.t7 2.31358
R63 VDD1.n4 VDD1.t4 2.31358
R64 VDD1.n0 VDD1.t6 2.31358
R65 VDD1.n0 VDD1.t0 2.31358
R66 VDD1.n2 VDD1.t5 2.31358
R67 VDD1.n2 VDD1.t2 2.31358
R68 VDD1.n1 VDD1.t3 2.31358
R69 VDD1.n1 VDD1.t1 2.31358
R70 VDD1 VDD1.n5 0.528517
R71 VTAIL.n370 VTAIL.n330 289.615
R72 VTAIL.n42 VTAIL.n2 289.615
R73 VTAIL.n88 VTAIL.n48 289.615
R74 VTAIL.n136 VTAIL.n96 289.615
R75 VTAIL.n324 VTAIL.n284 289.615
R76 VTAIL.n276 VTAIL.n236 289.615
R77 VTAIL.n230 VTAIL.n190 289.615
R78 VTAIL.n182 VTAIL.n142 289.615
R79 VTAIL.n345 VTAIL.n344 185
R80 VTAIL.n342 VTAIL.n341 185
R81 VTAIL.n351 VTAIL.n350 185
R82 VTAIL.n353 VTAIL.n352 185
R83 VTAIL.n338 VTAIL.n337 185
R84 VTAIL.n359 VTAIL.n358 185
R85 VTAIL.n362 VTAIL.n361 185
R86 VTAIL.n360 VTAIL.n334 185
R87 VTAIL.n367 VTAIL.n333 185
R88 VTAIL.n369 VTAIL.n368 185
R89 VTAIL.n371 VTAIL.n370 185
R90 VTAIL.n17 VTAIL.n16 185
R91 VTAIL.n14 VTAIL.n13 185
R92 VTAIL.n23 VTAIL.n22 185
R93 VTAIL.n25 VTAIL.n24 185
R94 VTAIL.n10 VTAIL.n9 185
R95 VTAIL.n31 VTAIL.n30 185
R96 VTAIL.n34 VTAIL.n33 185
R97 VTAIL.n32 VTAIL.n6 185
R98 VTAIL.n39 VTAIL.n5 185
R99 VTAIL.n41 VTAIL.n40 185
R100 VTAIL.n43 VTAIL.n42 185
R101 VTAIL.n63 VTAIL.n62 185
R102 VTAIL.n60 VTAIL.n59 185
R103 VTAIL.n69 VTAIL.n68 185
R104 VTAIL.n71 VTAIL.n70 185
R105 VTAIL.n56 VTAIL.n55 185
R106 VTAIL.n77 VTAIL.n76 185
R107 VTAIL.n80 VTAIL.n79 185
R108 VTAIL.n78 VTAIL.n52 185
R109 VTAIL.n85 VTAIL.n51 185
R110 VTAIL.n87 VTAIL.n86 185
R111 VTAIL.n89 VTAIL.n88 185
R112 VTAIL.n111 VTAIL.n110 185
R113 VTAIL.n108 VTAIL.n107 185
R114 VTAIL.n117 VTAIL.n116 185
R115 VTAIL.n119 VTAIL.n118 185
R116 VTAIL.n104 VTAIL.n103 185
R117 VTAIL.n125 VTAIL.n124 185
R118 VTAIL.n128 VTAIL.n127 185
R119 VTAIL.n126 VTAIL.n100 185
R120 VTAIL.n133 VTAIL.n99 185
R121 VTAIL.n135 VTAIL.n134 185
R122 VTAIL.n137 VTAIL.n136 185
R123 VTAIL.n325 VTAIL.n324 185
R124 VTAIL.n323 VTAIL.n322 185
R125 VTAIL.n321 VTAIL.n287 185
R126 VTAIL.n291 VTAIL.n288 185
R127 VTAIL.n316 VTAIL.n315 185
R128 VTAIL.n314 VTAIL.n313 185
R129 VTAIL.n293 VTAIL.n292 185
R130 VTAIL.n308 VTAIL.n307 185
R131 VTAIL.n306 VTAIL.n305 185
R132 VTAIL.n297 VTAIL.n296 185
R133 VTAIL.n300 VTAIL.n299 185
R134 VTAIL.n277 VTAIL.n276 185
R135 VTAIL.n275 VTAIL.n274 185
R136 VTAIL.n273 VTAIL.n239 185
R137 VTAIL.n243 VTAIL.n240 185
R138 VTAIL.n268 VTAIL.n267 185
R139 VTAIL.n266 VTAIL.n265 185
R140 VTAIL.n245 VTAIL.n244 185
R141 VTAIL.n260 VTAIL.n259 185
R142 VTAIL.n258 VTAIL.n257 185
R143 VTAIL.n249 VTAIL.n248 185
R144 VTAIL.n252 VTAIL.n251 185
R145 VTAIL.n231 VTAIL.n230 185
R146 VTAIL.n229 VTAIL.n228 185
R147 VTAIL.n227 VTAIL.n193 185
R148 VTAIL.n197 VTAIL.n194 185
R149 VTAIL.n222 VTAIL.n221 185
R150 VTAIL.n220 VTAIL.n219 185
R151 VTAIL.n199 VTAIL.n198 185
R152 VTAIL.n214 VTAIL.n213 185
R153 VTAIL.n212 VTAIL.n211 185
R154 VTAIL.n203 VTAIL.n202 185
R155 VTAIL.n206 VTAIL.n205 185
R156 VTAIL.n183 VTAIL.n182 185
R157 VTAIL.n181 VTAIL.n180 185
R158 VTAIL.n179 VTAIL.n145 185
R159 VTAIL.n149 VTAIL.n146 185
R160 VTAIL.n174 VTAIL.n173 185
R161 VTAIL.n172 VTAIL.n171 185
R162 VTAIL.n151 VTAIL.n150 185
R163 VTAIL.n166 VTAIL.n165 185
R164 VTAIL.n164 VTAIL.n163 185
R165 VTAIL.n155 VTAIL.n154 185
R166 VTAIL.n158 VTAIL.n157 185
R167 VTAIL.t3 VTAIL.n343 149.524
R168 VTAIL.t5 VTAIL.n15 149.524
R169 VTAIL.t13 VTAIL.n61 149.524
R170 VTAIL.t10 VTAIL.n109 149.524
R171 VTAIL.t11 VTAIL.n298 149.524
R172 VTAIL.t8 VTAIL.n250 149.524
R173 VTAIL.t6 VTAIL.n204 149.524
R174 VTAIL.t2 VTAIL.n156 149.524
R175 VTAIL.n344 VTAIL.n341 104.615
R176 VTAIL.n351 VTAIL.n341 104.615
R177 VTAIL.n352 VTAIL.n351 104.615
R178 VTAIL.n352 VTAIL.n337 104.615
R179 VTAIL.n359 VTAIL.n337 104.615
R180 VTAIL.n361 VTAIL.n359 104.615
R181 VTAIL.n361 VTAIL.n360 104.615
R182 VTAIL.n360 VTAIL.n333 104.615
R183 VTAIL.n369 VTAIL.n333 104.615
R184 VTAIL.n370 VTAIL.n369 104.615
R185 VTAIL.n16 VTAIL.n13 104.615
R186 VTAIL.n23 VTAIL.n13 104.615
R187 VTAIL.n24 VTAIL.n23 104.615
R188 VTAIL.n24 VTAIL.n9 104.615
R189 VTAIL.n31 VTAIL.n9 104.615
R190 VTAIL.n33 VTAIL.n31 104.615
R191 VTAIL.n33 VTAIL.n32 104.615
R192 VTAIL.n32 VTAIL.n5 104.615
R193 VTAIL.n41 VTAIL.n5 104.615
R194 VTAIL.n42 VTAIL.n41 104.615
R195 VTAIL.n62 VTAIL.n59 104.615
R196 VTAIL.n69 VTAIL.n59 104.615
R197 VTAIL.n70 VTAIL.n69 104.615
R198 VTAIL.n70 VTAIL.n55 104.615
R199 VTAIL.n77 VTAIL.n55 104.615
R200 VTAIL.n79 VTAIL.n77 104.615
R201 VTAIL.n79 VTAIL.n78 104.615
R202 VTAIL.n78 VTAIL.n51 104.615
R203 VTAIL.n87 VTAIL.n51 104.615
R204 VTAIL.n88 VTAIL.n87 104.615
R205 VTAIL.n110 VTAIL.n107 104.615
R206 VTAIL.n117 VTAIL.n107 104.615
R207 VTAIL.n118 VTAIL.n117 104.615
R208 VTAIL.n118 VTAIL.n103 104.615
R209 VTAIL.n125 VTAIL.n103 104.615
R210 VTAIL.n127 VTAIL.n125 104.615
R211 VTAIL.n127 VTAIL.n126 104.615
R212 VTAIL.n126 VTAIL.n99 104.615
R213 VTAIL.n135 VTAIL.n99 104.615
R214 VTAIL.n136 VTAIL.n135 104.615
R215 VTAIL.n324 VTAIL.n323 104.615
R216 VTAIL.n323 VTAIL.n287 104.615
R217 VTAIL.n291 VTAIL.n287 104.615
R218 VTAIL.n315 VTAIL.n291 104.615
R219 VTAIL.n315 VTAIL.n314 104.615
R220 VTAIL.n314 VTAIL.n292 104.615
R221 VTAIL.n307 VTAIL.n292 104.615
R222 VTAIL.n307 VTAIL.n306 104.615
R223 VTAIL.n306 VTAIL.n296 104.615
R224 VTAIL.n299 VTAIL.n296 104.615
R225 VTAIL.n276 VTAIL.n275 104.615
R226 VTAIL.n275 VTAIL.n239 104.615
R227 VTAIL.n243 VTAIL.n239 104.615
R228 VTAIL.n267 VTAIL.n243 104.615
R229 VTAIL.n267 VTAIL.n266 104.615
R230 VTAIL.n266 VTAIL.n244 104.615
R231 VTAIL.n259 VTAIL.n244 104.615
R232 VTAIL.n259 VTAIL.n258 104.615
R233 VTAIL.n258 VTAIL.n248 104.615
R234 VTAIL.n251 VTAIL.n248 104.615
R235 VTAIL.n230 VTAIL.n229 104.615
R236 VTAIL.n229 VTAIL.n193 104.615
R237 VTAIL.n197 VTAIL.n193 104.615
R238 VTAIL.n221 VTAIL.n197 104.615
R239 VTAIL.n221 VTAIL.n220 104.615
R240 VTAIL.n220 VTAIL.n198 104.615
R241 VTAIL.n213 VTAIL.n198 104.615
R242 VTAIL.n213 VTAIL.n212 104.615
R243 VTAIL.n212 VTAIL.n202 104.615
R244 VTAIL.n205 VTAIL.n202 104.615
R245 VTAIL.n182 VTAIL.n181 104.615
R246 VTAIL.n181 VTAIL.n145 104.615
R247 VTAIL.n149 VTAIL.n145 104.615
R248 VTAIL.n173 VTAIL.n149 104.615
R249 VTAIL.n173 VTAIL.n172 104.615
R250 VTAIL.n172 VTAIL.n150 104.615
R251 VTAIL.n165 VTAIL.n150 104.615
R252 VTAIL.n165 VTAIL.n164 104.615
R253 VTAIL.n164 VTAIL.n154 104.615
R254 VTAIL.n157 VTAIL.n154 104.615
R255 VTAIL.n344 VTAIL.t3 52.3082
R256 VTAIL.n16 VTAIL.t5 52.3082
R257 VTAIL.n62 VTAIL.t13 52.3082
R258 VTAIL.n110 VTAIL.t10 52.3082
R259 VTAIL.n299 VTAIL.t11 52.3082
R260 VTAIL.n251 VTAIL.t8 52.3082
R261 VTAIL.n205 VTAIL.t6 52.3082
R262 VTAIL.n157 VTAIL.t2 52.3082
R263 VTAIL.n283 VTAIL.n282 47.5381
R264 VTAIL.n189 VTAIL.n188 47.5381
R265 VTAIL.n1 VTAIL.n0 47.538
R266 VTAIL.n95 VTAIL.n94 47.538
R267 VTAIL.n375 VTAIL.n374 32.9611
R268 VTAIL.n47 VTAIL.n46 32.9611
R269 VTAIL.n93 VTAIL.n92 32.9611
R270 VTAIL.n141 VTAIL.n140 32.9611
R271 VTAIL.n329 VTAIL.n328 32.9611
R272 VTAIL.n281 VTAIL.n280 32.9611
R273 VTAIL.n235 VTAIL.n234 32.9611
R274 VTAIL.n187 VTAIL.n186 32.9611
R275 VTAIL.n375 VTAIL.n329 20.9186
R276 VTAIL.n187 VTAIL.n141 20.9186
R277 VTAIL.n368 VTAIL.n367 13.1884
R278 VTAIL.n40 VTAIL.n39 13.1884
R279 VTAIL.n86 VTAIL.n85 13.1884
R280 VTAIL.n134 VTAIL.n133 13.1884
R281 VTAIL.n322 VTAIL.n321 13.1884
R282 VTAIL.n274 VTAIL.n273 13.1884
R283 VTAIL.n228 VTAIL.n227 13.1884
R284 VTAIL.n180 VTAIL.n179 13.1884
R285 VTAIL.n366 VTAIL.n334 12.8005
R286 VTAIL.n371 VTAIL.n332 12.8005
R287 VTAIL.n38 VTAIL.n6 12.8005
R288 VTAIL.n43 VTAIL.n4 12.8005
R289 VTAIL.n84 VTAIL.n52 12.8005
R290 VTAIL.n89 VTAIL.n50 12.8005
R291 VTAIL.n132 VTAIL.n100 12.8005
R292 VTAIL.n137 VTAIL.n98 12.8005
R293 VTAIL.n325 VTAIL.n286 12.8005
R294 VTAIL.n320 VTAIL.n288 12.8005
R295 VTAIL.n277 VTAIL.n238 12.8005
R296 VTAIL.n272 VTAIL.n240 12.8005
R297 VTAIL.n231 VTAIL.n192 12.8005
R298 VTAIL.n226 VTAIL.n194 12.8005
R299 VTAIL.n183 VTAIL.n144 12.8005
R300 VTAIL.n178 VTAIL.n146 12.8005
R301 VTAIL.n363 VTAIL.n362 12.0247
R302 VTAIL.n372 VTAIL.n330 12.0247
R303 VTAIL.n35 VTAIL.n34 12.0247
R304 VTAIL.n44 VTAIL.n2 12.0247
R305 VTAIL.n81 VTAIL.n80 12.0247
R306 VTAIL.n90 VTAIL.n48 12.0247
R307 VTAIL.n129 VTAIL.n128 12.0247
R308 VTAIL.n138 VTAIL.n96 12.0247
R309 VTAIL.n326 VTAIL.n284 12.0247
R310 VTAIL.n317 VTAIL.n316 12.0247
R311 VTAIL.n278 VTAIL.n236 12.0247
R312 VTAIL.n269 VTAIL.n268 12.0247
R313 VTAIL.n232 VTAIL.n190 12.0247
R314 VTAIL.n223 VTAIL.n222 12.0247
R315 VTAIL.n184 VTAIL.n142 12.0247
R316 VTAIL.n175 VTAIL.n174 12.0247
R317 VTAIL.n358 VTAIL.n336 11.249
R318 VTAIL.n30 VTAIL.n8 11.249
R319 VTAIL.n76 VTAIL.n54 11.249
R320 VTAIL.n124 VTAIL.n102 11.249
R321 VTAIL.n313 VTAIL.n290 11.249
R322 VTAIL.n265 VTAIL.n242 11.249
R323 VTAIL.n219 VTAIL.n196 11.249
R324 VTAIL.n171 VTAIL.n148 11.249
R325 VTAIL.n357 VTAIL.n338 10.4732
R326 VTAIL.n29 VTAIL.n10 10.4732
R327 VTAIL.n75 VTAIL.n56 10.4732
R328 VTAIL.n123 VTAIL.n104 10.4732
R329 VTAIL.n312 VTAIL.n293 10.4732
R330 VTAIL.n264 VTAIL.n245 10.4732
R331 VTAIL.n218 VTAIL.n199 10.4732
R332 VTAIL.n170 VTAIL.n151 10.4732
R333 VTAIL.n345 VTAIL.n343 10.2747
R334 VTAIL.n17 VTAIL.n15 10.2747
R335 VTAIL.n63 VTAIL.n61 10.2747
R336 VTAIL.n111 VTAIL.n109 10.2747
R337 VTAIL.n300 VTAIL.n298 10.2747
R338 VTAIL.n252 VTAIL.n250 10.2747
R339 VTAIL.n206 VTAIL.n204 10.2747
R340 VTAIL.n158 VTAIL.n156 10.2747
R341 VTAIL.n354 VTAIL.n353 9.69747
R342 VTAIL.n26 VTAIL.n25 9.69747
R343 VTAIL.n72 VTAIL.n71 9.69747
R344 VTAIL.n120 VTAIL.n119 9.69747
R345 VTAIL.n309 VTAIL.n308 9.69747
R346 VTAIL.n261 VTAIL.n260 9.69747
R347 VTAIL.n215 VTAIL.n214 9.69747
R348 VTAIL.n167 VTAIL.n166 9.69747
R349 VTAIL.n374 VTAIL.n373 9.45567
R350 VTAIL.n46 VTAIL.n45 9.45567
R351 VTAIL.n92 VTAIL.n91 9.45567
R352 VTAIL.n140 VTAIL.n139 9.45567
R353 VTAIL.n328 VTAIL.n327 9.45567
R354 VTAIL.n280 VTAIL.n279 9.45567
R355 VTAIL.n234 VTAIL.n233 9.45567
R356 VTAIL.n186 VTAIL.n185 9.45567
R357 VTAIL.n373 VTAIL.n372 9.3005
R358 VTAIL.n332 VTAIL.n331 9.3005
R359 VTAIL.n347 VTAIL.n346 9.3005
R360 VTAIL.n349 VTAIL.n348 9.3005
R361 VTAIL.n340 VTAIL.n339 9.3005
R362 VTAIL.n355 VTAIL.n354 9.3005
R363 VTAIL.n357 VTAIL.n356 9.3005
R364 VTAIL.n336 VTAIL.n335 9.3005
R365 VTAIL.n364 VTAIL.n363 9.3005
R366 VTAIL.n366 VTAIL.n365 9.3005
R367 VTAIL.n45 VTAIL.n44 9.3005
R368 VTAIL.n4 VTAIL.n3 9.3005
R369 VTAIL.n19 VTAIL.n18 9.3005
R370 VTAIL.n21 VTAIL.n20 9.3005
R371 VTAIL.n12 VTAIL.n11 9.3005
R372 VTAIL.n27 VTAIL.n26 9.3005
R373 VTAIL.n29 VTAIL.n28 9.3005
R374 VTAIL.n8 VTAIL.n7 9.3005
R375 VTAIL.n36 VTAIL.n35 9.3005
R376 VTAIL.n38 VTAIL.n37 9.3005
R377 VTAIL.n91 VTAIL.n90 9.3005
R378 VTAIL.n50 VTAIL.n49 9.3005
R379 VTAIL.n65 VTAIL.n64 9.3005
R380 VTAIL.n67 VTAIL.n66 9.3005
R381 VTAIL.n58 VTAIL.n57 9.3005
R382 VTAIL.n73 VTAIL.n72 9.3005
R383 VTAIL.n75 VTAIL.n74 9.3005
R384 VTAIL.n54 VTAIL.n53 9.3005
R385 VTAIL.n82 VTAIL.n81 9.3005
R386 VTAIL.n84 VTAIL.n83 9.3005
R387 VTAIL.n139 VTAIL.n138 9.3005
R388 VTAIL.n98 VTAIL.n97 9.3005
R389 VTAIL.n113 VTAIL.n112 9.3005
R390 VTAIL.n115 VTAIL.n114 9.3005
R391 VTAIL.n106 VTAIL.n105 9.3005
R392 VTAIL.n121 VTAIL.n120 9.3005
R393 VTAIL.n123 VTAIL.n122 9.3005
R394 VTAIL.n102 VTAIL.n101 9.3005
R395 VTAIL.n130 VTAIL.n129 9.3005
R396 VTAIL.n132 VTAIL.n131 9.3005
R397 VTAIL.n302 VTAIL.n301 9.3005
R398 VTAIL.n304 VTAIL.n303 9.3005
R399 VTAIL.n295 VTAIL.n294 9.3005
R400 VTAIL.n310 VTAIL.n309 9.3005
R401 VTAIL.n312 VTAIL.n311 9.3005
R402 VTAIL.n290 VTAIL.n289 9.3005
R403 VTAIL.n318 VTAIL.n317 9.3005
R404 VTAIL.n320 VTAIL.n319 9.3005
R405 VTAIL.n327 VTAIL.n326 9.3005
R406 VTAIL.n286 VTAIL.n285 9.3005
R407 VTAIL.n254 VTAIL.n253 9.3005
R408 VTAIL.n256 VTAIL.n255 9.3005
R409 VTAIL.n247 VTAIL.n246 9.3005
R410 VTAIL.n262 VTAIL.n261 9.3005
R411 VTAIL.n264 VTAIL.n263 9.3005
R412 VTAIL.n242 VTAIL.n241 9.3005
R413 VTAIL.n270 VTAIL.n269 9.3005
R414 VTAIL.n272 VTAIL.n271 9.3005
R415 VTAIL.n279 VTAIL.n278 9.3005
R416 VTAIL.n238 VTAIL.n237 9.3005
R417 VTAIL.n208 VTAIL.n207 9.3005
R418 VTAIL.n210 VTAIL.n209 9.3005
R419 VTAIL.n201 VTAIL.n200 9.3005
R420 VTAIL.n216 VTAIL.n215 9.3005
R421 VTAIL.n218 VTAIL.n217 9.3005
R422 VTAIL.n196 VTAIL.n195 9.3005
R423 VTAIL.n224 VTAIL.n223 9.3005
R424 VTAIL.n226 VTAIL.n225 9.3005
R425 VTAIL.n233 VTAIL.n232 9.3005
R426 VTAIL.n192 VTAIL.n191 9.3005
R427 VTAIL.n160 VTAIL.n159 9.3005
R428 VTAIL.n162 VTAIL.n161 9.3005
R429 VTAIL.n153 VTAIL.n152 9.3005
R430 VTAIL.n168 VTAIL.n167 9.3005
R431 VTAIL.n170 VTAIL.n169 9.3005
R432 VTAIL.n148 VTAIL.n147 9.3005
R433 VTAIL.n176 VTAIL.n175 9.3005
R434 VTAIL.n178 VTAIL.n177 9.3005
R435 VTAIL.n185 VTAIL.n184 9.3005
R436 VTAIL.n144 VTAIL.n143 9.3005
R437 VTAIL.n350 VTAIL.n340 8.92171
R438 VTAIL.n22 VTAIL.n12 8.92171
R439 VTAIL.n68 VTAIL.n58 8.92171
R440 VTAIL.n116 VTAIL.n106 8.92171
R441 VTAIL.n305 VTAIL.n295 8.92171
R442 VTAIL.n257 VTAIL.n247 8.92171
R443 VTAIL.n211 VTAIL.n201 8.92171
R444 VTAIL.n163 VTAIL.n153 8.92171
R445 VTAIL.n349 VTAIL.n342 8.14595
R446 VTAIL.n21 VTAIL.n14 8.14595
R447 VTAIL.n67 VTAIL.n60 8.14595
R448 VTAIL.n115 VTAIL.n108 8.14595
R449 VTAIL.n304 VTAIL.n297 8.14595
R450 VTAIL.n256 VTAIL.n249 8.14595
R451 VTAIL.n210 VTAIL.n203 8.14595
R452 VTAIL.n162 VTAIL.n155 8.14595
R453 VTAIL.n346 VTAIL.n345 7.3702
R454 VTAIL.n18 VTAIL.n17 7.3702
R455 VTAIL.n64 VTAIL.n63 7.3702
R456 VTAIL.n112 VTAIL.n111 7.3702
R457 VTAIL.n301 VTAIL.n300 7.3702
R458 VTAIL.n253 VTAIL.n252 7.3702
R459 VTAIL.n207 VTAIL.n206 7.3702
R460 VTAIL.n159 VTAIL.n158 7.3702
R461 VTAIL.n346 VTAIL.n342 5.81868
R462 VTAIL.n18 VTAIL.n14 5.81868
R463 VTAIL.n64 VTAIL.n60 5.81868
R464 VTAIL.n112 VTAIL.n108 5.81868
R465 VTAIL.n301 VTAIL.n297 5.81868
R466 VTAIL.n253 VTAIL.n249 5.81868
R467 VTAIL.n207 VTAIL.n203 5.81868
R468 VTAIL.n159 VTAIL.n155 5.81868
R469 VTAIL.n350 VTAIL.n349 5.04292
R470 VTAIL.n22 VTAIL.n21 5.04292
R471 VTAIL.n68 VTAIL.n67 5.04292
R472 VTAIL.n116 VTAIL.n115 5.04292
R473 VTAIL.n305 VTAIL.n304 5.04292
R474 VTAIL.n257 VTAIL.n256 5.04292
R475 VTAIL.n211 VTAIL.n210 5.04292
R476 VTAIL.n163 VTAIL.n162 5.04292
R477 VTAIL.n353 VTAIL.n340 4.26717
R478 VTAIL.n25 VTAIL.n12 4.26717
R479 VTAIL.n71 VTAIL.n58 4.26717
R480 VTAIL.n119 VTAIL.n106 4.26717
R481 VTAIL.n308 VTAIL.n295 4.26717
R482 VTAIL.n260 VTAIL.n247 4.26717
R483 VTAIL.n214 VTAIL.n201 4.26717
R484 VTAIL.n166 VTAIL.n153 4.26717
R485 VTAIL.n354 VTAIL.n338 3.49141
R486 VTAIL.n26 VTAIL.n10 3.49141
R487 VTAIL.n72 VTAIL.n56 3.49141
R488 VTAIL.n120 VTAIL.n104 3.49141
R489 VTAIL.n309 VTAIL.n293 3.49141
R490 VTAIL.n261 VTAIL.n245 3.49141
R491 VTAIL.n215 VTAIL.n199 3.49141
R492 VTAIL.n167 VTAIL.n151 3.49141
R493 VTAIL.n347 VTAIL.n343 2.84303
R494 VTAIL.n19 VTAIL.n15 2.84303
R495 VTAIL.n65 VTAIL.n61 2.84303
R496 VTAIL.n113 VTAIL.n109 2.84303
R497 VTAIL.n302 VTAIL.n298 2.84303
R498 VTAIL.n254 VTAIL.n250 2.84303
R499 VTAIL.n208 VTAIL.n204 2.84303
R500 VTAIL.n160 VTAIL.n156 2.84303
R501 VTAIL.n358 VTAIL.n357 2.71565
R502 VTAIL.n30 VTAIL.n29 2.71565
R503 VTAIL.n76 VTAIL.n75 2.71565
R504 VTAIL.n124 VTAIL.n123 2.71565
R505 VTAIL.n313 VTAIL.n312 2.71565
R506 VTAIL.n265 VTAIL.n264 2.71565
R507 VTAIL.n219 VTAIL.n218 2.71565
R508 VTAIL.n171 VTAIL.n170 2.71565
R509 VTAIL.n0 VTAIL.t1 2.31358
R510 VTAIL.n0 VTAIL.t7 2.31358
R511 VTAIL.n94 VTAIL.t9 2.31358
R512 VTAIL.n94 VTAIL.t15 2.31358
R513 VTAIL.n282 VTAIL.t12 2.31358
R514 VTAIL.n282 VTAIL.t14 2.31358
R515 VTAIL.n188 VTAIL.t4 2.31358
R516 VTAIL.n188 VTAIL.t0 2.31358
R517 VTAIL.n362 VTAIL.n336 1.93989
R518 VTAIL.n374 VTAIL.n330 1.93989
R519 VTAIL.n34 VTAIL.n8 1.93989
R520 VTAIL.n46 VTAIL.n2 1.93989
R521 VTAIL.n80 VTAIL.n54 1.93989
R522 VTAIL.n92 VTAIL.n48 1.93989
R523 VTAIL.n128 VTAIL.n102 1.93989
R524 VTAIL.n140 VTAIL.n96 1.93989
R525 VTAIL.n328 VTAIL.n284 1.93989
R526 VTAIL.n316 VTAIL.n290 1.93989
R527 VTAIL.n280 VTAIL.n236 1.93989
R528 VTAIL.n268 VTAIL.n242 1.93989
R529 VTAIL.n234 VTAIL.n190 1.93989
R530 VTAIL.n222 VTAIL.n196 1.93989
R531 VTAIL.n186 VTAIL.n142 1.93989
R532 VTAIL.n174 VTAIL.n148 1.93989
R533 VTAIL.n189 VTAIL.n187 1.17291
R534 VTAIL.n235 VTAIL.n189 1.17291
R535 VTAIL.n283 VTAIL.n281 1.17291
R536 VTAIL.n329 VTAIL.n283 1.17291
R537 VTAIL.n141 VTAIL.n95 1.17291
R538 VTAIL.n95 VTAIL.n93 1.17291
R539 VTAIL.n47 VTAIL.n1 1.17291
R540 VTAIL.n363 VTAIL.n334 1.16414
R541 VTAIL.n372 VTAIL.n371 1.16414
R542 VTAIL.n35 VTAIL.n6 1.16414
R543 VTAIL.n44 VTAIL.n43 1.16414
R544 VTAIL.n81 VTAIL.n52 1.16414
R545 VTAIL.n90 VTAIL.n89 1.16414
R546 VTAIL.n129 VTAIL.n100 1.16414
R547 VTAIL.n138 VTAIL.n137 1.16414
R548 VTAIL.n326 VTAIL.n325 1.16414
R549 VTAIL.n317 VTAIL.n288 1.16414
R550 VTAIL.n278 VTAIL.n277 1.16414
R551 VTAIL.n269 VTAIL.n240 1.16414
R552 VTAIL.n232 VTAIL.n231 1.16414
R553 VTAIL.n223 VTAIL.n194 1.16414
R554 VTAIL.n184 VTAIL.n183 1.16414
R555 VTAIL.n175 VTAIL.n146 1.16414
R556 VTAIL VTAIL.n375 1.11472
R557 VTAIL.n281 VTAIL.n235 0.470328
R558 VTAIL.n93 VTAIL.n47 0.470328
R559 VTAIL.n367 VTAIL.n366 0.388379
R560 VTAIL.n368 VTAIL.n332 0.388379
R561 VTAIL.n39 VTAIL.n38 0.388379
R562 VTAIL.n40 VTAIL.n4 0.388379
R563 VTAIL.n85 VTAIL.n84 0.388379
R564 VTAIL.n86 VTAIL.n50 0.388379
R565 VTAIL.n133 VTAIL.n132 0.388379
R566 VTAIL.n134 VTAIL.n98 0.388379
R567 VTAIL.n322 VTAIL.n286 0.388379
R568 VTAIL.n321 VTAIL.n320 0.388379
R569 VTAIL.n274 VTAIL.n238 0.388379
R570 VTAIL.n273 VTAIL.n272 0.388379
R571 VTAIL.n228 VTAIL.n192 0.388379
R572 VTAIL.n227 VTAIL.n226 0.388379
R573 VTAIL.n180 VTAIL.n144 0.388379
R574 VTAIL.n179 VTAIL.n178 0.388379
R575 VTAIL.n348 VTAIL.n347 0.155672
R576 VTAIL.n348 VTAIL.n339 0.155672
R577 VTAIL.n355 VTAIL.n339 0.155672
R578 VTAIL.n356 VTAIL.n355 0.155672
R579 VTAIL.n356 VTAIL.n335 0.155672
R580 VTAIL.n364 VTAIL.n335 0.155672
R581 VTAIL.n365 VTAIL.n364 0.155672
R582 VTAIL.n365 VTAIL.n331 0.155672
R583 VTAIL.n373 VTAIL.n331 0.155672
R584 VTAIL.n20 VTAIL.n19 0.155672
R585 VTAIL.n20 VTAIL.n11 0.155672
R586 VTAIL.n27 VTAIL.n11 0.155672
R587 VTAIL.n28 VTAIL.n27 0.155672
R588 VTAIL.n28 VTAIL.n7 0.155672
R589 VTAIL.n36 VTAIL.n7 0.155672
R590 VTAIL.n37 VTAIL.n36 0.155672
R591 VTAIL.n37 VTAIL.n3 0.155672
R592 VTAIL.n45 VTAIL.n3 0.155672
R593 VTAIL.n66 VTAIL.n65 0.155672
R594 VTAIL.n66 VTAIL.n57 0.155672
R595 VTAIL.n73 VTAIL.n57 0.155672
R596 VTAIL.n74 VTAIL.n73 0.155672
R597 VTAIL.n74 VTAIL.n53 0.155672
R598 VTAIL.n82 VTAIL.n53 0.155672
R599 VTAIL.n83 VTAIL.n82 0.155672
R600 VTAIL.n83 VTAIL.n49 0.155672
R601 VTAIL.n91 VTAIL.n49 0.155672
R602 VTAIL.n114 VTAIL.n113 0.155672
R603 VTAIL.n114 VTAIL.n105 0.155672
R604 VTAIL.n121 VTAIL.n105 0.155672
R605 VTAIL.n122 VTAIL.n121 0.155672
R606 VTAIL.n122 VTAIL.n101 0.155672
R607 VTAIL.n130 VTAIL.n101 0.155672
R608 VTAIL.n131 VTAIL.n130 0.155672
R609 VTAIL.n131 VTAIL.n97 0.155672
R610 VTAIL.n139 VTAIL.n97 0.155672
R611 VTAIL.n327 VTAIL.n285 0.155672
R612 VTAIL.n319 VTAIL.n285 0.155672
R613 VTAIL.n319 VTAIL.n318 0.155672
R614 VTAIL.n318 VTAIL.n289 0.155672
R615 VTAIL.n311 VTAIL.n289 0.155672
R616 VTAIL.n311 VTAIL.n310 0.155672
R617 VTAIL.n310 VTAIL.n294 0.155672
R618 VTAIL.n303 VTAIL.n294 0.155672
R619 VTAIL.n303 VTAIL.n302 0.155672
R620 VTAIL.n279 VTAIL.n237 0.155672
R621 VTAIL.n271 VTAIL.n237 0.155672
R622 VTAIL.n271 VTAIL.n270 0.155672
R623 VTAIL.n270 VTAIL.n241 0.155672
R624 VTAIL.n263 VTAIL.n241 0.155672
R625 VTAIL.n263 VTAIL.n262 0.155672
R626 VTAIL.n262 VTAIL.n246 0.155672
R627 VTAIL.n255 VTAIL.n246 0.155672
R628 VTAIL.n255 VTAIL.n254 0.155672
R629 VTAIL.n233 VTAIL.n191 0.155672
R630 VTAIL.n225 VTAIL.n191 0.155672
R631 VTAIL.n225 VTAIL.n224 0.155672
R632 VTAIL.n224 VTAIL.n195 0.155672
R633 VTAIL.n217 VTAIL.n195 0.155672
R634 VTAIL.n217 VTAIL.n216 0.155672
R635 VTAIL.n216 VTAIL.n200 0.155672
R636 VTAIL.n209 VTAIL.n200 0.155672
R637 VTAIL.n209 VTAIL.n208 0.155672
R638 VTAIL.n185 VTAIL.n143 0.155672
R639 VTAIL.n177 VTAIL.n143 0.155672
R640 VTAIL.n177 VTAIL.n176 0.155672
R641 VTAIL.n176 VTAIL.n147 0.155672
R642 VTAIL.n169 VTAIL.n147 0.155672
R643 VTAIL.n169 VTAIL.n168 0.155672
R644 VTAIL.n168 VTAIL.n152 0.155672
R645 VTAIL.n161 VTAIL.n152 0.155672
R646 VTAIL.n161 VTAIL.n160 0.155672
R647 VTAIL VTAIL.n1 0.0586897
R648 B.n602 B.n601 585
R649 B.n603 B.n602 585
R650 B.n238 B.n91 585
R651 B.n237 B.n236 585
R652 B.n235 B.n234 585
R653 B.n233 B.n232 585
R654 B.n231 B.n230 585
R655 B.n229 B.n228 585
R656 B.n227 B.n226 585
R657 B.n225 B.n224 585
R658 B.n223 B.n222 585
R659 B.n221 B.n220 585
R660 B.n219 B.n218 585
R661 B.n217 B.n216 585
R662 B.n215 B.n214 585
R663 B.n213 B.n212 585
R664 B.n211 B.n210 585
R665 B.n209 B.n208 585
R666 B.n207 B.n206 585
R667 B.n205 B.n204 585
R668 B.n203 B.n202 585
R669 B.n201 B.n200 585
R670 B.n199 B.n198 585
R671 B.n197 B.n196 585
R672 B.n195 B.n194 585
R673 B.n193 B.n192 585
R674 B.n191 B.n190 585
R675 B.n189 B.n188 585
R676 B.n187 B.n186 585
R677 B.n185 B.n184 585
R678 B.n183 B.n182 585
R679 B.n181 B.n180 585
R680 B.n179 B.n178 585
R681 B.n176 B.n175 585
R682 B.n174 B.n173 585
R683 B.n172 B.n171 585
R684 B.n170 B.n169 585
R685 B.n168 B.n167 585
R686 B.n166 B.n165 585
R687 B.n164 B.n163 585
R688 B.n162 B.n161 585
R689 B.n160 B.n159 585
R690 B.n158 B.n157 585
R691 B.n156 B.n155 585
R692 B.n154 B.n153 585
R693 B.n152 B.n151 585
R694 B.n150 B.n149 585
R695 B.n148 B.n147 585
R696 B.n146 B.n145 585
R697 B.n144 B.n143 585
R698 B.n142 B.n141 585
R699 B.n140 B.n139 585
R700 B.n138 B.n137 585
R701 B.n136 B.n135 585
R702 B.n134 B.n133 585
R703 B.n132 B.n131 585
R704 B.n130 B.n129 585
R705 B.n128 B.n127 585
R706 B.n126 B.n125 585
R707 B.n124 B.n123 585
R708 B.n122 B.n121 585
R709 B.n120 B.n119 585
R710 B.n118 B.n117 585
R711 B.n116 B.n115 585
R712 B.n114 B.n113 585
R713 B.n112 B.n111 585
R714 B.n110 B.n109 585
R715 B.n108 B.n107 585
R716 B.n106 B.n105 585
R717 B.n104 B.n103 585
R718 B.n102 B.n101 585
R719 B.n100 B.n99 585
R720 B.n98 B.n97 585
R721 B.n53 B.n52 585
R722 B.n600 B.n54 585
R723 B.n604 B.n54 585
R724 B.n599 B.n598 585
R725 B.n598 B.n50 585
R726 B.n597 B.n49 585
R727 B.n610 B.n49 585
R728 B.n596 B.n48 585
R729 B.n611 B.n48 585
R730 B.n595 B.n47 585
R731 B.n612 B.n47 585
R732 B.n594 B.n593 585
R733 B.n593 B.n46 585
R734 B.n592 B.n42 585
R735 B.n618 B.n42 585
R736 B.n591 B.n41 585
R737 B.n619 B.n41 585
R738 B.n590 B.n40 585
R739 B.n620 B.n40 585
R740 B.n589 B.n588 585
R741 B.n588 B.n36 585
R742 B.n587 B.n35 585
R743 B.n626 B.n35 585
R744 B.n586 B.n34 585
R745 B.n627 B.n34 585
R746 B.n585 B.n33 585
R747 B.n628 B.n33 585
R748 B.n584 B.n583 585
R749 B.n583 B.n29 585
R750 B.n582 B.n28 585
R751 B.n634 B.n28 585
R752 B.n581 B.n27 585
R753 B.n635 B.n27 585
R754 B.n580 B.n26 585
R755 B.n636 B.n26 585
R756 B.n579 B.n578 585
R757 B.n578 B.n22 585
R758 B.n577 B.n21 585
R759 B.n642 B.n21 585
R760 B.n576 B.n20 585
R761 B.n643 B.n20 585
R762 B.n575 B.n19 585
R763 B.n644 B.n19 585
R764 B.n574 B.n573 585
R765 B.n573 B.n15 585
R766 B.n572 B.n14 585
R767 B.n650 B.n14 585
R768 B.n571 B.n13 585
R769 B.n651 B.n13 585
R770 B.n570 B.n12 585
R771 B.n652 B.n12 585
R772 B.n569 B.n568 585
R773 B.n568 B.n8 585
R774 B.n567 B.n7 585
R775 B.n658 B.n7 585
R776 B.n566 B.n6 585
R777 B.n659 B.n6 585
R778 B.n565 B.n5 585
R779 B.n660 B.n5 585
R780 B.n564 B.n563 585
R781 B.n563 B.n4 585
R782 B.n562 B.n239 585
R783 B.n562 B.n561 585
R784 B.n552 B.n240 585
R785 B.n241 B.n240 585
R786 B.n554 B.n553 585
R787 B.n555 B.n554 585
R788 B.n551 B.n246 585
R789 B.n246 B.n245 585
R790 B.n550 B.n549 585
R791 B.n549 B.n548 585
R792 B.n248 B.n247 585
R793 B.n249 B.n248 585
R794 B.n541 B.n540 585
R795 B.n542 B.n541 585
R796 B.n539 B.n254 585
R797 B.n254 B.n253 585
R798 B.n538 B.n537 585
R799 B.n537 B.n536 585
R800 B.n256 B.n255 585
R801 B.n257 B.n256 585
R802 B.n529 B.n528 585
R803 B.n530 B.n529 585
R804 B.n527 B.n262 585
R805 B.n262 B.n261 585
R806 B.n526 B.n525 585
R807 B.n525 B.n524 585
R808 B.n264 B.n263 585
R809 B.n265 B.n264 585
R810 B.n517 B.n516 585
R811 B.n518 B.n517 585
R812 B.n515 B.n270 585
R813 B.n270 B.n269 585
R814 B.n514 B.n513 585
R815 B.n513 B.n512 585
R816 B.n272 B.n271 585
R817 B.n273 B.n272 585
R818 B.n505 B.n504 585
R819 B.n506 B.n505 585
R820 B.n503 B.n278 585
R821 B.n278 B.n277 585
R822 B.n502 B.n501 585
R823 B.n501 B.n500 585
R824 B.n280 B.n279 585
R825 B.n493 B.n280 585
R826 B.n492 B.n491 585
R827 B.n494 B.n492 585
R828 B.n490 B.n285 585
R829 B.n285 B.n284 585
R830 B.n489 B.n488 585
R831 B.n488 B.n487 585
R832 B.n287 B.n286 585
R833 B.n288 B.n287 585
R834 B.n480 B.n479 585
R835 B.n481 B.n480 585
R836 B.n291 B.n290 585
R837 B.n335 B.n333 585
R838 B.n336 B.n332 585
R839 B.n336 B.n292 585
R840 B.n339 B.n338 585
R841 B.n340 B.n331 585
R842 B.n342 B.n341 585
R843 B.n344 B.n330 585
R844 B.n347 B.n346 585
R845 B.n348 B.n329 585
R846 B.n350 B.n349 585
R847 B.n352 B.n328 585
R848 B.n355 B.n354 585
R849 B.n356 B.n327 585
R850 B.n358 B.n357 585
R851 B.n360 B.n326 585
R852 B.n363 B.n362 585
R853 B.n364 B.n325 585
R854 B.n366 B.n365 585
R855 B.n368 B.n324 585
R856 B.n371 B.n370 585
R857 B.n372 B.n323 585
R858 B.n374 B.n373 585
R859 B.n376 B.n322 585
R860 B.n379 B.n378 585
R861 B.n380 B.n321 585
R862 B.n382 B.n381 585
R863 B.n384 B.n320 585
R864 B.n387 B.n386 585
R865 B.n388 B.n319 585
R866 B.n390 B.n389 585
R867 B.n392 B.n318 585
R868 B.n395 B.n394 585
R869 B.n397 B.n315 585
R870 B.n399 B.n398 585
R871 B.n401 B.n314 585
R872 B.n404 B.n403 585
R873 B.n405 B.n313 585
R874 B.n407 B.n406 585
R875 B.n409 B.n312 585
R876 B.n412 B.n411 585
R877 B.n413 B.n309 585
R878 B.n416 B.n415 585
R879 B.n418 B.n308 585
R880 B.n421 B.n420 585
R881 B.n422 B.n307 585
R882 B.n424 B.n423 585
R883 B.n426 B.n306 585
R884 B.n429 B.n428 585
R885 B.n430 B.n305 585
R886 B.n432 B.n431 585
R887 B.n434 B.n304 585
R888 B.n437 B.n436 585
R889 B.n438 B.n303 585
R890 B.n440 B.n439 585
R891 B.n442 B.n302 585
R892 B.n445 B.n444 585
R893 B.n446 B.n301 585
R894 B.n448 B.n447 585
R895 B.n450 B.n300 585
R896 B.n453 B.n452 585
R897 B.n454 B.n299 585
R898 B.n456 B.n455 585
R899 B.n458 B.n298 585
R900 B.n461 B.n460 585
R901 B.n462 B.n297 585
R902 B.n464 B.n463 585
R903 B.n466 B.n296 585
R904 B.n469 B.n468 585
R905 B.n470 B.n295 585
R906 B.n472 B.n471 585
R907 B.n474 B.n294 585
R908 B.n477 B.n476 585
R909 B.n478 B.n293 585
R910 B.n483 B.n482 585
R911 B.n482 B.n481 585
R912 B.n484 B.n289 585
R913 B.n289 B.n288 585
R914 B.n486 B.n485 585
R915 B.n487 B.n486 585
R916 B.n283 B.n282 585
R917 B.n284 B.n283 585
R918 B.n496 B.n495 585
R919 B.n495 B.n494 585
R920 B.n497 B.n281 585
R921 B.n493 B.n281 585
R922 B.n499 B.n498 585
R923 B.n500 B.n499 585
R924 B.n276 B.n275 585
R925 B.n277 B.n276 585
R926 B.n508 B.n507 585
R927 B.n507 B.n506 585
R928 B.n509 B.n274 585
R929 B.n274 B.n273 585
R930 B.n511 B.n510 585
R931 B.n512 B.n511 585
R932 B.n268 B.n267 585
R933 B.n269 B.n268 585
R934 B.n520 B.n519 585
R935 B.n519 B.n518 585