* NGSPICE file created from opamp_sample_0014.ext - technology: sky130A

.subckt opamp_sample_0014 GND VOUT VDD VN VP CS_BIAS DIFFPAIR_BIAS
X0 GND.t135 GND.t133 GND.t134 GND.t81 sky130_fd_pr__nfet_01v8 ad=3.8304 pd=12.08 as=0 ps=0 w=5.32 l=2.11
X1 a_n2675_n4106.t8 DIFFPAIR_BIAS.t10 GND.t21 GND.t20 sky130_fd_pr__nfet_01v8 ad=4.1112 pd=12.86 as=4.1112 ps=12.86 w=5.71 l=2.16
X2 GND.t132 GND.t130 GND.t131 GND.t77 sky130_fd_pr__nfet_01v8 ad=3.8304 pd=12.08 as=0 ps=0 w=5.32 l=2.11
X3 VDD.t49 a_n6918_10482.t6 a_n2500_9133.t5 VDD.t48 sky130_fd_pr__pfet_01v8 ad=0.7227 pd=2.85 as=1.5768 ps=5.82 w=2.19 l=3.2
X4 VOUT.t48 a_n2500_9133.t0 sky130_fd_pr__cap_mim_m3_1 l=12.27 w=19.55
X5 VOUT.t45 CS_BIAS.t24 GND.t138 GND.t26 sky130_fd_pr__nfet_01v8 ad=1.7556 pd=5.98 as=1.7556 ps=5.98 w=5.32 l=2.11
X6 VDD.t131 VDD.t129 VDD.t130 VDD.t57 sky130_fd_pr__pfet_01v8 ad=2.5848 pd=8.62 as=0 ps=0 w=3.59 l=3.83
X7 CS_BIAS.t23 CS_BIAS.t22 GND.t143 GND.t23 sky130_fd_pr__nfet_01v8 ad=1.7556 pd=5.98 as=1.7556 ps=5.98 w=5.32 l=2.11
X8 VDD.t128 VDD.t126 VDD.t127 VDD.t123 sky130_fd_pr__pfet_01v8 ad=1.5768 pd=5.82 as=0 ps=0 w=2.19 l=3.2
X9 VDD.t125 VDD.t122 VDD.t124 VDD.t123 sky130_fd_pr__pfet_01v8 ad=1.5768 pd=5.82 as=0 ps=0 w=2.19 l=3.2
X10 VDD.t13 a_n12950_8244.t4 VOUT.t12 VDD.t12 sky130_fd_pr__pfet_01v8 ad=1.1847 pd=4.25 as=1.1847 ps=4.25 w=3.59 l=3.83
X11 GND.t129 GND.t127 GND.t128 GND.t102 sky130_fd_pr__nfet_01v8 ad=3.8304 pd=12.08 as=0 ps=0 w=5.32 l=2.11
X12 VDD.t50 a_n12950_8244.t5 VOUT.t20 VDD.t12 sky130_fd_pr__pfet_01v8 ad=1.1847 pd=4.25 as=1.1847 ps=4.25 w=3.59 l=3.83
X13 VDD.t121 VDD.t119 VDD.t120 VDD.t53 sky130_fd_pr__pfet_01v8 ad=1.5768 pd=5.82 as=0 ps=0 w=2.19 l=3.2
X14 VDD.t118 VDD.t116 VDD.t117 VDD.t79 sky130_fd_pr__pfet_01v8 ad=1.5768 pd=5.82 as=0 ps=0 w=2.19 l=3.2
X15 VOUT.t49 a_n2500_9133.t0 sky130_fd_pr__cap_mim_m3_1 l=12.27 w=19.55
X16 GND.t126 GND.t123 GND.t125 GND.t124 sky130_fd_pr__nfet_01v8 ad=4.1112 pd=12.86 as=0 ps=0 w=5.71 l=2.16
X17 GND.t122 GND.t120 GND.t121 GND.t95 sky130_fd_pr__nfet_01v8 ad=4.896 pd=15.04 as=0 ps=0 w=6.8 l=4.8
X18 VOUT.t41 a_n12950_8244.t6 VDD.t142 VDD.t137 sky130_fd_pr__pfet_01v8 ad=2.5848 pd=8.62 as=1.1847 ps=4.25 w=3.59 l=3.83
X19 VOUT.t46 CS_BIAS.t25 GND.t141 GND.t23 sky130_fd_pr__nfet_01v8 ad=1.7556 pd=5.98 as=1.7556 ps=5.98 w=5.32 l=2.11
X20 VDD.t47 a_n6918_10482.t7 a_n7062_10679.t9 VDD.t46 sky130_fd_pr__pfet_01v8 ad=0.7227 pd=2.85 as=0.7227 ps=2.85 w=2.19 l=3.2
X21 VDD.t45 a_n6918_10482.t8 a_n7062_10679.t8 VDD.t44 sky130_fd_pr__pfet_01v8 ad=0.7227 pd=2.85 as=1.5768 ps=5.82 w=2.19 l=3.2
X22 VDD.t144 a_n12950_8244.t7 VOUT.t43 VDD.t12 sky130_fd_pr__pfet_01v8 ad=1.1847 pd=4.25 as=1.1847 ps=4.25 w=3.59 l=3.83
X23 GND.t50 CS_BIAS.t20 CS_BIAS.t21 GND.t44 sky130_fd_pr__nfet_01v8 ad=3.8304 pd=12.08 as=1.7556 ps=5.98 w=5.32 l=2.11
X24 VOUT.t47 CS_BIAS.t26 GND.t142 GND.t15 sky130_fd_pr__nfet_01v8 ad=1.7556 pd=5.98 as=1.7556 ps=5.98 w=5.32 l=2.11
X25 VOUT.t14 a_n12950_8244.t8 VDD.t14 VDD.t4 sky130_fd_pr__pfet_01v8 ad=2.5848 pd=8.62 as=1.1847 ps=4.25 w=3.59 l=3.83
X26 CS_BIAS.t19 CS_BIAS.t18 GND.t39 GND.t0 sky130_fd_pr__nfet_01v8 ad=1.7556 pd=5.98 as=3.8304 ps=12.08 w=5.32 l=2.11
X27 a_n7062_10679.t1 a_n6918_10482.t2 a_n6918_10482.t3 VDD.t23 sky130_fd_pr__pfet_01v8 ad=1.5768 pd=5.82 as=1.5768 ps=5.82 w=2.19 l=3.2
X28 GND.t119 GND.t117 GND.t118 GND.t70 sky130_fd_pr__nfet_01v8 ad=4.896 pd=15.04 as=0 ps=0 w=6.8 l=4.8
X29 a_n7062_10679.t7 a_n6918_10482.t9 VDD.t43 VDD.t42 sky130_fd_pr__pfet_01v8 ad=1.5768 pd=5.82 as=0.7227 ps=2.85 w=2.19 l=3.2
X30 VOUT.t39 a_n12950_8244.t9 VDD.t139 VDD.t137 sky130_fd_pr__pfet_01v8 ad=2.5848 pd=8.62 as=1.1847 ps=4.25 w=3.59 l=3.83
X31 VOUT.t38 a_n12950_8244.t10 VDD.t138 VDD.t137 sky130_fd_pr__pfet_01v8 ad=2.5848 pd=8.62 as=1.1847 ps=4.25 w=3.59 l=3.83
X32 VDD.t115 VDD.t113 VDD.t114 VDD.t57 sky130_fd_pr__pfet_01v8 ad=2.5848 pd=8.62 as=0 ps=0 w=3.59 l=3.83
X33 VDD.t112 VDD.t110 VDD.t111 VDD.t83 sky130_fd_pr__pfet_01v8 ad=2.5848 pd=8.62 as=0 ps=0 w=3.59 l=3.83
X34 a_n2675_n4106.t7 DIFFPAIR_BIAS.t11 GND.t47 GND.t46 sky130_fd_pr__nfet_01v8 ad=4.1112 pd=12.86 as=4.1112 ps=12.86 w=5.71 l=2.16
X35 VDD.t109 VDD.t107 VDD.t108 VDD.t75 sky130_fd_pr__pfet_01v8 ad=1.5768 pd=5.82 as=0 ps=0 w=2.19 l=3.2
X36 DIFFPAIR_BIAS.t9 DIFFPAIR_BIAS.t8 GND.t56 GND.t55 sky130_fd_pr__nfet_01v8 ad=4.1112 pd=12.86 as=4.1112 ps=12.86 w=5.71 l=2.16
X37 VDD.t106 VDD.t104 VDD.t105 VDD.t68 sky130_fd_pr__pfet_01v8 ad=2.5848 pd=8.62 as=0 ps=0 w=3.59 l=3.83
X38 GND.t38 CS_BIAS.t27 VOUT.t25 GND.t28 sky130_fd_pr__nfet_01v8 ad=1.7556 pd=5.98 as=1.7556 ps=5.98 w=5.32 l=2.11
X39 VDD.t10 a_n12950_8244.t11 VOUT.t10 VDD.t2 sky130_fd_pr__pfet_01v8 ad=1.1847 pd=4.25 as=1.1847 ps=4.25 w=3.59 l=3.83
X40 VOUT.t2 CS_BIAS.t28 GND.t9 GND.t8 sky130_fd_pr__nfet_01v8 ad=1.7556 pd=5.98 as=1.7556 ps=5.98 w=5.32 l=2.11
X41 DIFFPAIR_BIAS.t7 DIFFPAIR_BIAS.t6 GND.t137 GND.t136 sky130_fd_pr__nfet_01v8 ad=4.1112 pd=12.86 as=4.1112 ps=12.86 w=5.71 l=2.16
X42 VOUT.t28 a_n12950_8244.t12 VDD.t133 VDD.t0 sky130_fd_pr__pfet_01v8 ad=1.1847 pd=4.25 as=2.5848 ps=8.62 w=3.59 l=3.83
X43 VOUT.t4 CS_BIAS.t29 GND.t12 GND.t11 sky130_fd_pr__nfet_01v8 ad=1.7556 pd=5.98 as=3.8304 ps=12.08 w=5.32 l=2.11
X44 GND.t18 CS_BIAS.t30 VOUT.t17 GND.t17 sky130_fd_pr__nfet_01v8 ad=1.7556 pd=5.98 as=1.7556 ps=5.98 w=5.32 l=2.11
X45 VDD.t103 VDD.t101 VDD.t102 VDD.t61 sky130_fd_pr__pfet_01v8 ad=2.5848 pd=8.62 as=0 ps=0 w=3.59 l=3.83
X46 GND.t116 GND.t114 VN.t1 GND.t115 sky130_fd_pr__nfet_01v8 ad=0.165 pd=1.33 as=0.39 ps=2.78 w=1 l=0.5
X47 VDD.t100 VDD.t98 VDD.t99 VDD.t83 sky130_fd_pr__pfet_01v8 ad=2.5848 pd=8.62 as=0 ps=0 w=3.59 l=3.83
X48 a_n2500_9133.t1 a_n6918_10482.t10 VDD.t41 VDD.t40 sky130_fd_pr__pfet_01v8 ad=1.5768 pd=5.82 as=0.7227 ps=2.85 w=2.19 l=3.2
X49 a_n2500_9133.t9 a_n6918_10482.t11 VDD.t39 VDD.t38 sky130_fd_pr__pfet_01v8 ad=0.7227 pd=2.85 as=0.7227 ps=2.85 w=2.19 l=3.2
X50 CS_BIAS.t17 CS_BIAS.t16 GND.t30 GND.t11 sky130_fd_pr__nfet_01v8 ad=1.7556 pd=5.98 as=3.8304 ps=12.08 w=5.32 l=2.11
X51 GND.t40 CS_BIAS.t14 CS_BIAS.t15 GND.t33 sky130_fd_pr__nfet_01v8 ad=3.8304 pd=12.08 as=1.7556 ps=5.98 w=5.32 l=2.11
X52 VDD.t97 VDD.t95 VDD.t96 VDD.t68 sky130_fd_pr__pfet_01v8 ad=2.5848 pd=8.62 as=0 ps=0 w=3.59 l=3.83
X53 a_n12950_8244.t2 VN.t2 a_n2675_n4106.t0 GND.t25 sky130_fd_pr__nfet_01v8 ad=4.896 pd=15.04 as=4.896 ps=15.04 w=6.8 l=4.8
X54 a_n2675_n4106.t6 DIFFPAIR_BIAS.t12 GND.t43 GND.t42 sky130_fd_pr__nfet_01v8 ad=4.1112 pd=12.86 as=4.1112 ps=12.86 w=5.71 l=2.16
X55 GND.t29 CS_BIAS.t12 CS_BIAS.t13 GND.t28 sky130_fd_pr__nfet_01v8 ad=1.7556 pd=5.98 as=1.7556 ps=5.98 w=5.32 l=2.11
X56 GND.t113 GND.t111 GND.t112 GND.t81 sky130_fd_pr__nfet_01v8 ad=3.8304 pd=12.08 as=0 ps=0 w=5.32 l=2.11
X57 a_n12950_8244.t1 a_n6918_10482.t12 a_n2500_9133.t10 VDD.t16 sky130_fd_pr__pfet_01v8 ad=1.5768 pd=5.82 as=1.5768 ps=5.82 w=2.19 l=3.2
X58 VDD.t94 VDD.t92 VDD.t93 VDD.t83 sky130_fd_pr__pfet_01v8 ad=2.5848 pd=8.62 as=0 ps=0 w=3.59 l=3.83
X59 GND.t110 GND.t108 GND.t109 GND.t77 sky130_fd_pr__nfet_01v8 ad=3.8304 pd=12.08 as=0 ps=0 w=5.32 l=2.11
X60 GND.t45 CS_BIAS.t31 VOUT.t26 GND.t44 sky130_fd_pr__nfet_01v8 ad=3.8304 pd=12.08 as=1.7556 ps=5.98 w=5.32 l=2.11
X61 VOUT.t9 a_n12950_8244.t13 VDD.t9 VDD.t7 sky130_fd_pr__pfet_01v8 ad=1.1847 pd=4.25 as=2.5848 ps=8.62 w=3.59 l=3.83
X62 GND.t49 CS_BIAS.t32 VOUT.t30 GND.t2 sky130_fd_pr__nfet_01v8 ad=1.7556 pd=5.98 as=1.7556 ps=5.98 w=5.32 l=2.11
X63 GND.t107 GND.t105 GND.t106 GND.t102 sky130_fd_pr__nfet_01v8 ad=3.8304 pd=12.08 as=0 ps=0 w=5.32 l=2.11
X64 a_n7062_10679.t6 a_n6918_10482.t13 VDD.t37 VDD.t36 sky130_fd_pr__pfet_01v8 ad=0.7227 pd=2.85 as=0.7227 ps=2.85 w=2.19 l=3.2
X65 GND.t104 GND.t101 GND.t103 GND.t102 sky130_fd_pr__nfet_01v8 ad=3.8304 pd=12.08 as=0 ps=0 w=5.32 l=2.11
X66 VOUT.t37 a_n12950_8244.t14 VDD.t136 VDD.t7 sky130_fd_pr__pfet_01v8 ad=1.1847 pd=4.25 as=2.5848 ps=8.62 w=3.59 l=3.83
X67 GND.t54 CS_BIAS.t33 VOUT.t35 GND.t33 sky130_fd_pr__nfet_01v8 ad=3.8304 pd=12.08 as=1.7556 ps=5.98 w=5.32 l=2.11
X68 VDD.t91 VDD.t89 VDD.t90 VDD.t68 sky130_fd_pr__pfet_01v8 ad=2.5848 pd=8.62 as=0 ps=0 w=3.59 l=3.83
X69 VOUT.t8 a_n12950_8244.t15 VDD.t8 VDD.t7 sky130_fd_pr__pfet_01v8 ad=1.1847 pd=4.25 as=2.5848 ps=8.62 w=3.59 l=3.83
X70 a_n7062_10679.t5 a_n6918_10482.t14 VDD.t35 VDD.t34 sky130_fd_pr__pfet_01v8 ad=1.5768 pd=5.82 as=0.7227 ps=2.85 w=2.19 l=3.2
X71 VDD.t134 a_n12950_8244.t16 VOUT.t32 VDD.t12 sky130_fd_pr__pfet_01v8 ad=1.1847 pd=4.25 as=1.1847 ps=4.25 w=3.59 l=3.83
X72 GND.t100 GND.t98 VP.t1 GND.t99 sky130_fd_pr__nfet_01v8 ad=0.165 pd=1.33 as=0.39 ps=2.78 w=1 l=0.5
X73 GND.t10 CS_BIAS.t34 VOUT.t3 GND.t6 sky130_fd_pr__nfet_01v8 ad=1.7556 pd=5.98 as=1.7556 ps=5.98 w=5.32 l=2.11
X74 GND.t97 GND.t94 GND.t96 GND.t95 sky130_fd_pr__nfet_01v8 ad=4.896 pd=15.04 as=0 ps=0 w=6.8 l=4.8
X75 GND.t93 GND.t91 GND.t92 GND.t63 sky130_fd_pr__nfet_01v8 ad=3.8304 pd=12.08 as=0 ps=0 w=5.32 l=2.11
X76 a_n8118_10679# a_n8118_10679# a_n8118_10679# VDD.t140 sky130_fd_pr__pfet_01v8 ad=1.5768 pd=5.82 as=3.1536 ps=11.64 w=2.19 l=3.2
X77 a_n2500_9133.t8 a_n6918_10482.t15 VDD.t33 VDD.t32 sky130_fd_pr__pfet_01v8 ad=1.5768 pd=5.82 as=0.7227 ps=2.85 w=2.19 l=3.2
X78 VOUT.t0 CS_BIAS.t35 GND.t1 GND.t0 sky130_fd_pr__nfet_01v8 ad=1.7556 pd=5.98 as=3.8304 ps=12.08 w=5.32 l=2.11
X79 GND.t90 GND.t88 GND.t89 GND.t63 sky130_fd_pr__nfet_01v8 ad=3.8304 pd=12.08 as=0 ps=0 w=5.32 l=2.11
X80 a_n6918_10482.t5 VP.t2 a_n2675_n4106.t2 GND.t35 sky130_fd_pr__nfet_01v8 ad=4.896 pd=15.04 as=4.896 ps=15.04 w=6.8 l=4.8
X81 DIFFPAIR_BIAS.t5 DIFFPAIR_BIAS.t4 GND.t37 GND.t36 sky130_fd_pr__nfet_01v8 ad=4.1112 pd=12.86 as=4.1112 ps=12.86 w=5.71 l=2.16
X82 VOUT.t40 a_n12950_8244.t17 VDD.t141 VDD.t137 sky130_fd_pr__pfet_01v8 ad=2.5848 pd=8.62 as=1.1847 ps=4.25 w=3.59 l=3.83
X83 VDD.t88 VDD.t86 VDD.t87 VDD.t57 sky130_fd_pr__pfet_01v8 ad=2.5848 pd=8.62 as=0 ps=0 w=3.59 l=3.83
X84 VDD.t31 a_n6918_10482.t16 a_n2500_9133.t3 VDD.t30 sky130_fd_pr__pfet_01v8 ad=0.7227 pd=2.85 as=0.7227 ps=2.85 w=2.19 l=3.2
X85 VDD.t85 VDD.t82 VDD.t84 VDD.t83 sky130_fd_pr__pfet_01v8 ad=2.5848 pd=8.62 as=0 ps=0 w=3.59 l=3.83
X86 a_7190_10679# a_7190_10679# a_7190_10679# VDD.t15 sky130_fd_pr__pfet_01v8 ad=1.5768 pd=5.82 as=3.1536 ps=11.64 w=2.19 l=3.2
X87 GND.t87 GND.t84 GND.t86 GND.t85 sky130_fd_pr__nfet_01v8 ad=4.1112 pd=12.86 as=0 ps=0 w=5.71 l=2.16
X88 a_n2500_9133.t4 a_n6918_10482.t17 VDD.t29 VDD.t28 sky130_fd_pr__pfet_01v8 ad=0.7227 pd=2.85 as=0.7227 ps=2.85 w=2.19 l=3.2
X89 DIFFPAIR_BIAS.t3 DIFFPAIR_BIAS.t2 GND.t140 GND.t139 sky130_fd_pr__nfet_01v8 ad=4.1112 pd=12.86 as=4.1112 ps=12.86 w=5.71 l=2.16
X90 GND.t83 GND.t80 GND.t82 GND.t81 sky130_fd_pr__nfet_01v8 ad=3.8304 pd=12.08 as=0 ps=0 w=5.32 l=2.11
X91 VOUT.t34 CS_BIAS.t36 GND.t53 GND.t11 sky130_fd_pr__nfet_01v8 ad=1.7556 pd=5.98 as=3.8304 ps=12.08 w=5.32 l=2.11
X92 GND.t22 CS_BIAS.t37 VOUT.t18 GND.t17 sky130_fd_pr__nfet_01v8 ad=1.7556 pd=5.98 as=1.7556 ps=5.98 w=5.32 l=2.11
X93 GND.t79 GND.t76 GND.t78 GND.t77 sky130_fd_pr__nfet_01v8 ad=3.8304 pd=12.08 as=0 ps=0 w=5.32 l=2.11
X94 VDD.t81 VDD.t78 VDD.t80 VDD.t79 sky130_fd_pr__pfet_01v8 ad=1.5768 pd=5.82 as=0 ps=0 w=2.19 l=3.2
X95 CS_BIAS.t11 CS_BIAS.t10 GND.t19 GND.t15 sky130_fd_pr__nfet_01v8 ad=1.7556 pd=5.98 as=1.7556 ps=5.98 w=5.32 l=2.11
X96 VOUT.t21 CS_BIAS.t38 GND.t27 GND.t26 sky130_fd_pr__nfet_01v8 ad=1.7556 pd=5.98 as=1.7556 ps=5.98 w=5.32 l=2.11
X97 GND.t3 CS_BIAS.t8 CS_BIAS.t9 GND.t2 sky130_fd_pr__nfet_01v8 ad=1.7556 pd=5.98 as=1.7556 ps=5.98 w=5.32 l=2.11
X98 a_n6918_10482.t4 VP.t3 a_n2675_n4106.t1 GND.t25 sky130_fd_pr__nfet_01v8 ad=4.896 pd=15.04 as=4.896 ps=15.04 w=6.8 l=4.8
X99 VOUT.t27 a_n12950_8244.t18 VDD.t132 VDD.t4 sky130_fd_pr__pfet_01v8 ad=2.5848 pd=8.62 as=1.1847 ps=4.25 w=3.59 l=3.83
X100 VN.t0 GND.t66 GND.t68 GND.t67 sky130_fd_pr__nfet_01v8 ad=0.39 pd=2.78 as=0.165 ps=1.33 w=1 l=0.5
X101 VP.t0 GND.t73 GND.t75 GND.t74 sky130_fd_pr__nfet_01v8 ad=0.39 pd=2.78 as=0.165 ps=1.33 w=1 l=0.5
X102 VDD.t77 VDD.t74 VDD.t76 VDD.t75 sky130_fd_pr__pfet_01v8 ad=1.5768 pd=5.82 as=0 ps=0 w=2.19 l=3.2
X103 VDD.t27 a_n6918_10482.t18 a_n2500_9133.t6 VDD.t26 sky130_fd_pr__pfet_01v8 ad=0.7227 pd=2.85 as=1.5768 ps=5.82 w=2.19 l=3.2
X104 GND.t51 CS_BIAS.t39 VOUT.t31 GND.t44 sky130_fd_pr__nfet_01v8 ad=3.8304 pd=12.08 as=1.7556 ps=5.98 w=5.32 l=2.11
X105 VOUT.t50 a_n2500_9133.t0 sky130_fd_pr__cap_mim_m3_1 l=12.27 w=19.55
X106 GND.t13 CS_BIAS.t40 VOUT.t13 GND.t2 sky130_fd_pr__nfet_01v8 ad=1.7556 pd=5.98 as=1.7556 ps=5.98 w=5.32 l=2.11
X107 GND.t72 GND.t69 GND.t71 GND.t70 sky130_fd_pr__nfet_01v8 ad=4.896 pd=15.04 as=0 ps=0 w=6.8 l=4.8
X108 VOUT.t36 a_n12950_8244.t19 VDD.t135 VDD.t4 sky130_fd_pr__pfet_01v8 ad=2.5848 pd=8.62 as=1.1847 ps=4.25 w=3.59 l=3.83
X109 VOUT.t19 CS_BIAS.t41 GND.t24 GND.t23 sky130_fd_pr__nfet_01v8 ad=1.7556 pd=5.98 as=1.7556 ps=5.98 w=5.32 l=2.11
X110 VDD.t6 a_n12950_8244.t20 VOUT.t7 VDD.t2 sky130_fd_pr__pfet_01v8 ad=1.1847 pd=4.25 as=1.1847 ps=4.25 w=3.59 l=3.83
X111 GND.t34 CS_BIAS.t42 VOUT.t23 GND.t33 sky130_fd_pr__nfet_01v8 ad=3.8304 pd=12.08 as=1.7556 ps=5.98 w=5.32 l=2.11
X112 VOUT.t16 CS_BIAS.t43 GND.t16 GND.t15 sky130_fd_pr__nfet_01v8 ad=1.7556 pd=5.98 as=1.7556 ps=5.98 w=5.32 l=2.11
X113 CS_BIAS.t7 CS_BIAS.t6 GND.t59 GND.t8 sky130_fd_pr__nfet_01v8 ad=1.7556 pd=5.98 as=1.7556 ps=5.98 w=5.32 l=2.11
X114 a_n2675_n4106.t5 DIFFPAIR_BIAS.t13 GND.t58 GND.t57 sky130_fd_pr__nfet_01v8 ad=4.1112 pd=12.86 as=4.1112 ps=12.86 w=5.71 l=2.16
X115 VOUT.t6 a_n12950_8244.t21 VDD.t5 VDD.t4 sky130_fd_pr__pfet_01v8 ad=2.5848 pd=8.62 as=1.1847 ps=4.25 w=3.59 l=3.83
X116 VDD.t73 VDD.t71 VDD.t72 VDD.t61 sky130_fd_pr__pfet_01v8 ad=2.5848 pd=8.62 as=0 ps=0 w=3.59 l=3.83
X117 VOUT.t42 a_n12950_8244.t22 VDD.t143 VDD.t7 sky130_fd_pr__pfet_01v8 ad=1.1847 pd=4.25 as=2.5848 ps=8.62 w=3.59 l=3.83
X118 VDD.t25 a_n6918_10482.t19 a_n7062_10679.t4 VDD.t24 sky130_fd_pr__pfet_01v8 ad=0.7227 pd=2.85 as=1.5768 ps=5.82 w=2.19 l=3.2
X119 a_n2675_n4106.t4 DIFFPAIR_BIAS.t14 GND.t61 GND.t60 sky130_fd_pr__nfet_01v8 ad=4.1112 pd=12.86 as=4.1112 ps=12.86 w=5.71 l=2.16
X120 VDD.t70 VDD.t67 VDD.t69 VDD.t68 sky130_fd_pr__pfet_01v8 ad=2.5848 pd=8.62 as=0 ps=0 w=3.59 l=3.83
X121 a_n7062_10679.t3 a_n6918_10482.t20 VDD.t20 VDD.t19 sky130_fd_pr__pfet_01v8 ad=0.7227 pd=2.85 as=0.7227 ps=2.85 w=2.19 l=3.2
X122 DIFFPAIR_BIAS.t1 DIFFPAIR_BIAS.t0 GND.t5 GND.t4 sky130_fd_pr__nfet_01v8 ad=4.1112 pd=12.86 as=4.1112 ps=12.86 w=5.71 l=2.16
X123 a_n12950_8244.t0 a_n6918_10482.t21 a_n2500_9133.t2 VDD.t23 sky130_fd_pr__pfet_01v8 ad=1.5768 pd=5.82 as=1.5768 ps=5.82 w=2.19 l=3.2
X124 VOUT.t44 a_n12950_8244.t23 VDD.t145 VDD.t0 sky130_fd_pr__pfet_01v8 ad=1.1847 pd=4.25 as=2.5848 ps=8.62 w=3.59 l=3.83
X125 VDD.t11 a_n12950_8244.t24 VOUT.t11 VDD.t2 sky130_fd_pr__pfet_01v8 ad=1.1847 pd=4.25 as=1.1847 ps=4.25 w=3.59 l=3.83
X126 GND.t48 CS_BIAS.t44 VOUT.t29 GND.t6 sky130_fd_pr__nfet_01v8 ad=1.7556 pd=5.98 as=1.7556 ps=5.98 w=5.32 l=2.11
X127 VDD.t3 a_n12950_8244.t25 VOUT.t5 VDD.t2 sky130_fd_pr__pfet_01v8 ad=1.1847 pd=4.25 as=1.1847 ps=4.25 w=3.59 l=3.83
X128 GND.t52 CS_BIAS.t45 VOUT.t33 GND.t28 sky130_fd_pr__nfet_01v8 ad=1.7556 pd=5.98 as=1.7556 ps=5.98 w=5.32 l=2.11
X129 VOUT.t24 a_n12950_8244.t26 VDD.t51 VDD.t0 sky130_fd_pr__pfet_01v8 ad=1.1847 pd=4.25 as=2.5848 ps=8.62 w=3.59 l=3.83
X130 VDD.t22 a_n6918_10482.t22 a_n7062_10679.t2 VDD.t21 sky130_fd_pr__pfet_01v8 ad=0.7227 pd=2.85 as=0.7227 ps=2.85 w=2.19 l=3.2
X131 VOUT.t22 CS_BIAS.t46 GND.t32 GND.t8 sky130_fd_pr__nfet_01v8 ad=1.7556 pd=5.98 as=1.7556 ps=5.98 w=5.32 l=2.11
X132 VDD.t66 VDD.t64 VDD.t65 VDD.t61 sky130_fd_pr__pfet_01v8 ad=2.5848 pd=8.62 as=0 ps=0 w=3.59 l=3.83
X133 VDD.t18 a_n6918_10482.t23 a_n2500_9133.t7 VDD.t17 sky130_fd_pr__pfet_01v8 ad=0.7227 pd=2.85 as=0.7227 ps=2.85 w=2.19 l=3.2
X134 VOUT.t15 CS_BIAS.t47 GND.t14 GND.t0 sky130_fd_pr__nfet_01v8 ad=1.7556 pd=5.98 as=3.8304 ps=12.08 w=5.32 l=2.11
X135 GND.t7 CS_BIAS.t4 CS_BIAS.t5 GND.t6 sky130_fd_pr__nfet_01v8 ad=1.7556 pd=5.98 as=1.7556 ps=5.98 w=5.32 l=2.11
X136 VDD.t63 VDD.t60 VDD.t62 VDD.t61 sky130_fd_pr__pfet_01v8 ad=2.5848 pd=8.62 as=0 ps=0 w=3.59 l=3.83
X137 a_n7062_10679.t0 a_n6918_10482.t0 a_n6918_10482.t1 VDD.t16 sky130_fd_pr__pfet_01v8 ad=1.5768 pd=5.82 as=1.5768 ps=5.82 w=2.19 l=3.2
X138 CS_BIAS.t3 CS_BIAS.t2 GND.t31 GND.t26 sky130_fd_pr__nfet_01v8 ad=1.7556 pd=5.98 as=1.7556 ps=5.98 w=5.32 l=2.11
X139 GND.t65 GND.t62 GND.t64 GND.t63 sky130_fd_pr__nfet_01v8 ad=3.8304 pd=12.08 as=0 ps=0 w=5.32 l=2.11
X140 VOUT.t51 a_n2500_9133.t0 sky130_fd_pr__cap_mim_m3_1 l=12.27 w=19.55
X141 VOUT.t1 a_n12950_8244.t27 VDD.t1 VDD.t0 sky130_fd_pr__pfet_01v8 ad=1.1847 pd=4.25 as=2.5848 ps=8.62 w=3.59 l=3.83
X142 GND.t41 CS_BIAS.t0 CS_BIAS.t1 GND.t17 sky130_fd_pr__nfet_01v8 ad=1.7556 pd=5.98 as=1.7556 ps=5.98 w=5.32 l=2.11
X143 VDD.t59 VDD.t56 VDD.t58 VDD.t57 sky130_fd_pr__pfet_01v8 ad=2.5848 pd=8.62 as=0 ps=0 w=3.59 l=3.83
X144 VDD.t55 VDD.t52 VDD.t54 VDD.t53 sky130_fd_pr__pfet_01v8 ad=1.5768 pd=5.82 as=0 ps=0 w=2.19 l=3.2
X145 a_n12950_8244.t3 VN.t3 a_n2675_n4106.t3 GND.t35 sky130_fd_pr__nfet_01v8 ad=4.896 pd=15.04 as=4.896 ps=15.04 w=6.8 l=4.8
R0 GND.n6188 GND.n307 2194.01
R1 GND.n5338 GND.n5337 1749.94
R2 GND.n4656 GND.n1857 860.073
R3 GND.n4190 GND.n1859 860.073
R4 GND.n3515 GND.n1301 860.073
R5 GND.n5031 GND.n1231 860.073
R6 GND.n1221 GND.n1169 821.635
R7 GND.n5006 GND.n1167 821.635
R8 GND.n1017 GND.n966 821.635
R9 GND.n5190 GND.n5189 821.635
R10 GND.n2537 GND.n1884 821.635
R11 GND.n2498 GND.n1882 821.635
R12 GND.n1999 GND.n82 821.635
R13 GND.n6503 GND.n78 821.635
R14 GND.n6501 GND.n84 778.39
R15 GND.n6446 GND.n80 778.39
R16 GND.n2543 GND.n1881 778.39
R17 GND.n4638 GND.n1885 778.39
R18 GND.n5099 GND.n1171 778.39
R19 GND.n5101 GND.n1165 778.39
R20 GND.n1016 GND.n1015 778.39
R21 GND.n5262 GND.n970 778.39
R22 GND.n5459 GND.n746 699.111
R23 GND.n6189 GND.n308 699.111
R24 GND.n6346 GND.n218 699.111
R25 GND.n5339 GND.n868 699.111
R26 GND.n5460 GND.n5459 585
R27 GND.n5459 GND.n5458 585
R28 GND.n750 GND.n749 585
R29 GND.n5457 GND.n750 585
R30 GND.n5455 GND.n5454 585
R31 GND.n5456 GND.n5455 585
R32 GND.n5453 GND.n752 585
R33 GND.n752 GND.n751 585
R34 GND.n5452 GND.n5451 585
R35 GND.n5451 GND.n5450 585
R36 GND.n757 GND.n756 585
R37 GND.n5449 GND.n757 585
R38 GND.n5447 GND.n5446 585
R39 GND.n5448 GND.n5447 585
R40 GND.n5445 GND.n759 585
R41 GND.n759 GND.n758 585
R42 GND.n5444 GND.n5443 585
R43 GND.n5443 GND.n5442 585
R44 GND.n765 GND.n764 585
R45 GND.n5441 GND.n765 585
R46 GND.n5439 GND.n5438 585
R47 GND.n5440 GND.n5439 585
R48 GND.n5437 GND.n767 585
R49 GND.n767 GND.n766 585
R50 GND.n5436 GND.n5435 585
R51 GND.n5435 GND.n5434 585
R52 GND.n773 GND.n772 585
R53 GND.n5433 GND.n773 585
R54 GND.n5431 GND.n5430 585
R55 GND.n5432 GND.n5431 585
R56 GND.n5429 GND.n775 585
R57 GND.n775 GND.n774 585
R58 GND.n5428 GND.n5427 585
R59 GND.n5427 GND.n5426 585
R60 GND.n781 GND.n780 585
R61 GND.n5425 GND.n781 585
R62 GND.n5423 GND.n5422 585
R63 GND.n5424 GND.n5423 585
R64 GND.n5421 GND.n783 585
R65 GND.n783 GND.n782 585
R66 GND.n5420 GND.n5419 585
R67 GND.n5419 GND.n5418 585
R68 GND.n789 GND.n788 585
R69 GND.n5417 GND.n789 585
R70 GND.n5415 GND.n5414 585
R71 GND.n5416 GND.n5415 585
R72 GND.n5413 GND.n791 585
R73 GND.n791 GND.n790 585
R74 GND.n5412 GND.n5411 585
R75 GND.n5411 GND.n5410 585
R76 GND.n797 GND.n796 585
R77 GND.n5409 GND.n797 585
R78 GND.n5407 GND.n5406 585
R79 GND.n5408 GND.n5407 585
R80 GND.n5405 GND.n799 585
R81 GND.n799 GND.n798 585
R82 GND.n5404 GND.n5403 585
R83 GND.n5403 GND.n5402 585
R84 GND.n805 GND.n804 585
R85 GND.n5401 GND.n805 585
R86 GND.n5399 GND.n5398 585
R87 GND.n5400 GND.n5399 585
R88 GND.n5397 GND.n807 585
R89 GND.n807 GND.n806 585
R90 GND.n5396 GND.n5395 585
R91 GND.n5395 GND.n5394 585
R92 GND.n813 GND.n812 585
R93 GND.n5393 GND.n813 585
R94 GND.n5391 GND.n5390 585
R95 GND.n5392 GND.n5391 585
R96 GND.n5389 GND.n815 585
R97 GND.n815 GND.n814 585
R98 GND.n5388 GND.n5387 585
R99 GND.n5387 GND.n5386 585
R100 GND.n821 GND.n820 585
R101 GND.n5385 GND.n821 585
R102 GND.n5383 GND.n5382 585
R103 GND.n5384 GND.n5383 585
R104 GND.n5381 GND.n823 585
R105 GND.n823 GND.n822 585
R106 GND.n5380 GND.n5379 585
R107 GND.n5379 GND.n5378 585
R108 GND.n829 GND.n828 585
R109 GND.n5377 GND.n829 585
R110 GND.n5375 GND.n5374 585
R111 GND.n5376 GND.n5375 585
R112 GND.n5373 GND.n831 585
R113 GND.n831 GND.n830 585
R114 GND.n5372 GND.n5371 585
R115 GND.n5371 GND.n5370 585
R116 GND.n837 GND.n836 585
R117 GND.n5369 GND.n837 585
R118 GND.n5367 GND.n5366 585
R119 GND.n5368 GND.n5367 585
R120 GND.n5365 GND.n839 585
R121 GND.n839 GND.n838 585
R122 GND.n5364 GND.n5363 585
R123 GND.n5363 GND.n5362 585
R124 GND.n845 GND.n844 585
R125 GND.n5361 GND.n845 585
R126 GND.n5359 GND.n5358 585
R127 GND.n5360 GND.n5359 585
R128 GND.n5357 GND.n847 585
R129 GND.n847 GND.n846 585
R130 GND.n5356 GND.n5355 585
R131 GND.n5355 GND.n5354 585
R132 GND.n853 GND.n852 585
R133 GND.n5353 GND.n853 585
R134 GND.n5351 GND.n5350 585
R135 GND.n5352 GND.n5351 585
R136 GND.n5349 GND.n855 585
R137 GND.n855 GND.n854 585
R138 GND.n5348 GND.n5347 585
R139 GND.n5347 GND.n5346 585
R140 GND.n861 GND.n860 585
R141 GND.n5345 GND.n861 585
R142 GND.n5343 GND.n5342 585
R143 GND.n5344 GND.n5343 585
R144 GND.n5341 GND.n863 585
R145 GND.n863 GND.n862 585
R146 GND.n5340 GND.n5339 585
R147 GND.n5339 GND.n5338 585
R148 GND.n747 GND.n746 585
R149 GND.n746 GND.n745 585
R150 GND.n5465 GND.n5464 585
R151 GND.n5466 GND.n5465 585
R152 GND.n744 GND.n743 585
R153 GND.n5467 GND.n744 585
R154 GND.n5470 GND.n5469 585
R155 GND.n5469 GND.n5468 585
R156 GND.n741 GND.n740 585
R157 GND.n740 GND.n739 585
R158 GND.n5475 GND.n5474 585
R159 GND.n5476 GND.n5475 585
R160 GND.n738 GND.n737 585
R161 GND.n5477 GND.n738 585
R162 GND.n5480 GND.n5479 585
R163 GND.n5479 GND.n5478 585
R164 GND.n735 GND.n734 585
R165 GND.n734 GND.n733 585
R166 GND.n5485 GND.n5484 585
R167 GND.n5486 GND.n5485 585
R168 GND.n732 GND.n731 585
R169 GND.n5487 GND.n732 585
R170 GND.n5490 GND.n5489 585
R171 GND.n5489 GND.n5488 585
R172 GND.n729 GND.n728 585
R173 GND.n728 GND.n727 585
R174 GND.n5495 GND.n5494 585
R175 GND.n5496 GND.n5495 585
R176 GND.n726 GND.n725 585
R177 GND.n5497 GND.n726 585
R178 GND.n5500 GND.n5499 585
R179 GND.n5499 GND.n5498 585
R180 GND.n723 GND.n722 585
R181 GND.n722 GND.n721 585
R182 GND.n5505 GND.n5504 585
R183 GND.n5506 GND.n5505 585
R184 GND.n720 GND.n719 585
R185 GND.n5507 GND.n720 585
R186 GND.n5510 GND.n5509 585
R187 GND.n5509 GND.n5508 585
R188 GND.n717 GND.n716 585
R189 GND.n716 GND.n715 585
R190 GND.n5515 GND.n5514 585
R191 GND.n5516 GND.n5515 585
R192 GND.n714 GND.n713 585
R193 GND.n5517 GND.n714 585
R194 GND.n5520 GND.n5519 585
R195 GND.n5519 GND.n5518 585
R196 GND.n711 GND.n710 585
R197 GND.n710 GND.n709 585
R198 GND.n5525 GND.n5524 585
R199 GND.n5526 GND.n5525 585
R200 GND.n708 GND.n707 585
R201 GND.n5527 GND.n708 585
R202 GND.n5530 GND.n5529 585
R203 GND.n5529 GND.n5528 585
R204 GND.n705 GND.n704 585
R205 GND.n704 GND.n703 585
R206 GND.n5535 GND.n5534 585
R207 GND.n5536 GND.n5535 585
R208 GND.n702 GND.n701 585
R209 GND.n5537 GND.n702 585
R210 GND.n5540 GND.n5539 585
R211 GND.n5539 GND.n5538 585
R212 GND.n699 GND.n698 585
R213 GND.n698 GND.n697 585
R214 GND.n5545 GND.n5544 585
R215 GND.n5546 GND.n5545 585
R216 GND.n696 GND.n695 585
R217 GND.n5547 GND.n696 585
R218 GND.n5550 GND.n5549 585
R219 GND.n5549 GND.n5548 585
R220 GND.n693 GND.n692 585
R221 GND.n692 GND.n691 585
R222 GND.n5555 GND.n5554 585
R223 GND.n5556 GND.n5555 585
R224 GND.n690 GND.n689 585
R225 GND.n5557 GND.n690 585
R226 GND.n5560 GND.n5559 585
R227 GND.n5559 GND.n5558 585
R228 GND.n687 GND.n686 585
R229 GND.n686 GND.n685 585
R230 GND.n5565 GND.n5564 585
R231 GND.n5566 GND.n5565 585
R232 GND.n684 GND.n683 585
R233 GND.n5567 GND.n684 585
R234 GND.n5570 GND.n5569 585
R235 GND.n5569 GND.n5568 585
R236 GND.n681 GND.n680 585
R237 GND.n680 GND.n679 585
R238 GND.n5575 GND.n5574 585
R239 GND.n5576 GND.n5575 585
R240 GND.n678 GND.n677 585
R241 GND.n5577 GND.n678 585
R242 GND.n5580 GND.n5579 585
R243 GND.n5579 GND.n5578 585
R244 GND.n675 GND.n674 585
R245 GND.n674 GND.n673 585
R246 GND.n5585 GND.n5584 585
R247 GND.n5586 GND.n5585 585
R248 GND.n672 GND.n671 585
R249 GND.n5587 GND.n672 585
R250 GND.n5590 GND.n5589 585
R251 GND.n5589 GND.n5588 585
R252 GND.n669 GND.n668 585
R253 GND.n668 GND.n667 585
R254 GND.n5595 GND.n5594 585
R255 GND.n5596 GND.n5595 585
R256 GND.n666 GND.n665 585
R257 GND.n5597 GND.n666 585
R258 GND.n5600 GND.n5599 585
R259 GND.n5599 GND.n5598 585
R260 GND.n663 GND.n662 585
R261 GND.n662 GND.n661 585
R262 GND.n5605 GND.n5604 585
R263 GND.n5606 GND.n5605 585
R264 GND.n660 GND.n659 585
R265 GND.n5607 GND.n660 585
R266 GND.n5610 GND.n5609 585
R267 GND.n5609 GND.n5608 585
R268 GND.n657 GND.n656 585
R269 GND.n656 GND.n655 585
R270 GND.n5615 GND.n5614 585
R271 GND.n5616 GND.n5615 585
R272 GND.n654 GND.n653 585
R273 GND.n5617 GND.n654 585
R274 GND.n5620 GND.n5619 585
R275 GND.n5619 GND.n5618 585
R276 GND.n651 GND.n650 585
R277 GND.n650 GND.n649 585
R278 GND.n5625 GND.n5624 585
R279 GND.n5626 GND.n5625 585
R280 GND.n648 GND.n647 585
R281 GND.n5627 GND.n648 585
R282 GND.n5630 GND.n5629 585
R283 GND.n5629 GND.n5628 585
R284 GND.n645 GND.n644 585
R285 GND.n644 GND.n643 585
R286 GND.n5635 GND.n5634 585
R287 GND.n5636 GND.n5635 585
R288 GND.n642 GND.n641 585
R289 GND.n5637 GND.n642 585
R290 GND.n5640 GND.n5639 585
R291 GND.n5639 GND.n5638 585
R292 GND.n639 GND.n638 585
R293 GND.n638 GND.n637 585
R294 GND.n5645 GND.n5644 585
R295 GND.n5646 GND.n5645 585
R296 GND.n636 GND.n635 585
R297 GND.n5647 GND.n636 585
R298 GND.n5650 GND.n5649 585
R299 GND.n5649 GND.n5648 585
R300 GND.n633 GND.n632 585
R301 GND.n632 GND.n631 585
R302 GND.n5655 GND.n5654 585
R303 GND.n5656 GND.n5655 585
R304 GND.n630 GND.n629 585
R305 GND.n5657 GND.n630 585
R306 GND.n5660 GND.n5659 585
R307 GND.n5659 GND.n5658 585
R308 GND.n627 GND.n626 585
R309 GND.n626 GND.n625 585
R310 GND.n5665 GND.n5664 585
R311 GND.n5666 GND.n5665 585
R312 GND.n624 GND.n623 585
R313 GND.n5667 GND.n624 585
R314 GND.n5670 GND.n5669 585
R315 GND.n5669 GND.n5668 585
R316 GND.n621 GND.n620 585
R317 GND.n620 GND.n619 585
R318 GND.n5675 GND.n5674 585
R319 GND.n5676 GND.n5675 585
R320 GND.n618 GND.n617 585
R321 GND.n5677 GND.n618 585
R322 GND.n5680 GND.n5679 585
R323 GND.n5679 GND.n5678 585
R324 GND.n615 GND.n614 585
R325 GND.n614 GND.n613 585
R326 GND.n5685 GND.n5684 585
R327 GND.n5686 GND.n5685 585
R328 GND.n612 GND.n611 585
R329 GND.n5687 GND.n612 585
R330 GND.n5690 GND.n5689 585
R331 GND.n5689 GND.n5688 585
R332 GND.n609 GND.n608 585
R333 GND.n608 GND.n607 585
R334 GND.n5695 GND.n5694 585
R335 GND.n5696 GND.n5695 585
R336 GND.n606 GND.n605 585
R337 GND.n5697 GND.n606 585
R338 GND.n5700 GND.n5699 585
R339 GND.n5699 GND.n5698 585
R340 GND.n603 GND.n602 585
R341 GND.n602 GND.n601 585
R342 GND.n5705 GND.n5704 585
R343 GND.n5706 GND.n5705 585
R344 GND.n600 GND.n599 585
R345 GND.n5707 GND.n600 585
R346 GND.n5710 GND.n5709 585
R347 GND.n5709 GND.n5708 585
R348 GND.n597 GND.n596 585
R349 GND.n596 GND.n595 585
R350 GND.n5715 GND.n5714 585
R351 GND.n5716 GND.n5715 585
R352 GND.n594 GND.n593 585
R353 GND.n5717 GND.n594 585
R354 GND.n5720 GND.n5719 585
R355 GND.n5719 GND.n5718 585
R356 GND.n591 GND.n590 585
R357 GND.n590 GND.n589 585
R358 GND.n5725 GND.n5724 585
R359 GND.n5726 GND.n5725 585
R360 GND.n588 GND.n587 585
R361 GND.n5727 GND.n588 585
R362 GND.n5730 GND.n5729 585
R363 GND.n5729 GND.n5728 585
R364 GND.n585 GND.n584 585
R365 GND.n584 GND.n583 585
R366 GND.n5735 GND.n5734 585
R367 GND.n5736 GND.n5735 585
R368 GND.n582 GND.n581 585
R369 GND.n5737 GND.n582 585
R370 GND.n5740 GND.n5739 585
R371 GND.n5739 GND.n5738 585
R372 GND.n579 GND.n578 585
R373 GND.n578 GND.n577 585
R374 GND.n5745 GND.n5744 585
R375 GND.n5746 GND.n5745 585
R376 GND.n576 GND.n575 585
R377 GND.n5747 GND.n576 585
R378 GND.n5750 GND.n5749 585
R379 GND.n5749 GND.n5748 585
R380 GND.n573 GND.n572 585
R381 GND.n572 GND.n571 585
R382 GND.n5755 GND.n5754 585
R383 GND.n5756 GND.n5755 585
R384 GND.n570 GND.n569 585
R385 GND.n5757 GND.n570 585
R386 GND.n5760 GND.n5759 585
R387 GND.n5759 GND.n5758 585
R388 GND.n567 GND.n566 585
R389 GND.n566 GND.n565 585
R390 GND.n5765 GND.n5764 585
R391 GND.n5766 GND.n5765 585
R392 GND.n564 GND.n563 585
R393 GND.n5767 GND.n564 585
R394 GND.n5770 GND.n5769 585
R395 GND.n5769 GND.n5768 585
R396 GND.n561 GND.n560 585
R397 GND.n560 GND.n559 585
R398 GND.n5775 GND.n5774 585
R399 GND.n5776 GND.n5775 585
R400 GND.n558 GND.n557 585
R401 GND.n5777 GND.n558 585
R402 GND.n5780 GND.n5779 585
R403 GND.n5779 GND.n5778 585
R404 GND.n555 GND.n554 585
R405 GND.n554 GND.n553 585
R406 GND.n5785 GND.n5784 585
R407 GND.n5786 GND.n5785 585
R408 GND.n552 GND.n551 585
R409 GND.n5787 GND.n552 585
R410 GND.n5790 GND.n5789 585
R411 GND.n5789 GND.n5788 585
R412 GND.n549 GND.n548 585
R413 GND.n548 GND.n547 585
R414 GND.n5795 GND.n5794 585
R415 GND.n5796 GND.n5795 585
R416 GND.n546 GND.n545 585
R417 GND.n5797 GND.n546 585
R418 GND.n5800 GND.n5799 585
R419 GND.n5799 GND.n5798 585
R420 GND.n543 GND.n542 585
R421 GND.n542 GND.n541 585
R422 GND.n5805 GND.n5804 585
R423 GND.n5806 GND.n5805 585
R424 GND.n540 GND.n539 585
R425 GND.n5807 GND.n540 585
R426 GND.n5810 GND.n5809 585
R427 GND.n5809 GND.n5808 585
R428 GND.n537 GND.n536 585
R429 GND.n536 GND.n535 585
R430 GND.n5815 GND.n5814 585
R431 GND.n5816 GND.n5815 585
R432 GND.n534 GND.n533 585
R433 GND.n5817 GND.n534 585
R434 GND.n5820 GND.n5819 585
R435 GND.n5819 GND.n5818 585
R436 GND.n531 GND.n530 585
R437 GND.n530 GND.n529 585
R438 GND.n5825 GND.n5824 585
R439 GND.n5826 GND.n5825 585
R440 GND.n528 GND.n527 585
R441 GND.n5827 GND.n528 585
R442 GND.n5830 GND.n5829 585
R443 GND.n5829 GND.n5828 585
R444 GND.n525 GND.n524 585
R445 GND.n524 GND.n523 585
R446 GND.n5835 GND.n5834 585
R447 GND.n5836 GND.n5835 585
R448 GND.n522 GND.n521 585
R449 GND.n5837 GND.n522 585
R450 GND.n5840 GND.n5839 585
R451 GND.n5839 GND.n5838 585
R452 GND.n519 GND.n518 585
R453 GND.n518 GND.n517 585
R454 GND.n5845 GND.n5844 585
R455 GND.n5846 GND.n5845 585
R456 GND.n516 GND.n515 585
R457 GND.n5847 GND.n516 585
R458 GND.n5850 GND.n5849 585
R459 GND.n5849 GND.n5848 585
R460 GND.n513 GND.n512 585
R461 GND.n512 GND.n511 585
R462 GND.n5855 GND.n5854 585
R463 GND.n5856 GND.n5855 585
R464 GND.n510 GND.n509 585