* Copyright 2020 The SkyWater PDK Authors
*
* Licensed under the Apache License, Version 2.0 (the "License");
* you may not use this file except in compliance with the License.
* You may obtain a copy of the License at
*
*     https://www.apache.org/licenses/LICENSE-2.0
*
* Unless required by applicable law or agreed to in writing, software
* distributed under the License is distributed on an "AS IS" BASIS,
* WITHOUT WARRANTIES OR CONDITIONS OF ANY KIND, either express or implied.
* See the License for the specific language governing permissions and
* limitations under the License.
*
* SPDX-License-Identifier: Apache-2.0


.subckt sky130_fd_sc_hs__decap_8 VGND VNB VPB VPWR
X0 VPWR VGND VPWR VPB sky130_fd_pr__pfet_01v8 w=1e+06u l=1e+06u
X1 VGND VPWR VGND VNB sky130_fd_pr__nfet_01v8_lvt w=420000u l=1e+06u
X2 VGND VPWR VGND VNB sky130_fd_pr__nfet_01v8_lvt w=420000u l=1e+06u
X3 VPWR VGND VPWR VPB sky130_fd_pr__pfet_01v8 w=1e+06u l=1e+06u
.ends
* Copyright 2020 The SkyWater PDK Authors
*
* Licensed under the Apache License, Version 2.0 (the "License");
* you may not use this file except in compliance with the License.
* You may obtain a copy of the License at
*
*     https://www.apache.org/licenses/LICENSE-2.0
*
* Unless required by applicable law or agreed to in writing, software
* distributed under the License is distributed on an "AS IS" BASIS,
* WITHOUT WARRANTIES OR CONDITIONS OF ANY KIND, either express or implied.
* See the License for the specific language governing permissions and
* limitations under the License.
*
* SPDX-License-Identifier: Apache-2.0


.subckt sky130_fd_sc_hs__decap_4 VGND VNB VPB VPWR
X0 VPWR VGND VPWR VPB sky130_fd_pr__pfet_01v8 w=1e+06u l=1e+06u
X1 VGND VPWR VGND VNB sky130_fd_pr__nfet_01v8_lvt w=420000u l=1e+06u
.ends
* Copyright 2020 The SkyWater PDK Authors
*
* Licensed under the Apache License, Version 2.0 (the "License");
* you may not use this file except in compliance with the License.
* You may obtain a copy of the License at
*
*     https://www.apache.org/licenses/LICENSE-2.0
*
* Unless required by applicable law or agreed to in writing, software
* distributed under the License is distributed on an "AS IS" BASIS,
* WITHOUT WARRANTIES OR CONDITIONS OF ANY KIND, either express or implied.
* See the License for the specific language governing permissions and
* limitations under the License.
*
* SPDX-License-Identifier: Apache-2.0


.subckt sky130_fd_sc_hs__nand3_2 A B C VGND VNB VPB VPWR Y
X0 VPWR C Y VPB sky130_fd_pr__pfet_01v8 w=1.12e+06u l=150000u
X1 Y B VPWR VPB sky130_fd_pr__pfet_01v8 w=1.12e+06u l=150000u
X2 Y A VPWR VPB sky130_fd_pr__pfet_01v8 w=1.12e+06u l=150000u
X3 VGND C a_27_74# VNB sky130_fd_pr__nfet_01v8_lvt w=740000u l=150000u
X4 a_27_74# C VGND VNB sky130_fd_pr__nfet_01v8_lvt w=740000u l=150000u
X5 a_27_74# B a_283_74# VNB sky130_fd_pr__nfet_01v8_lvt w=740000u l=150000u
X6 VPWR A Y VPB sky130_fd_pr__pfet_01v8 w=1.12e+06u l=150000u
X7 Y C VPWR VPB sky130_fd_pr__pfet_01v8 w=1.12e+06u l=150000u
X8 a_283_74# B a_27_74# VNB sky130_fd_pr__nfet_01v8_lvt w=740000u l=150000u
X9 a_283_74# A Y VNB sky130_fd_pr__nfet_01v8_lvt w=740000u l=150000u
X10 VPWR B Y VPB sky130_fd_pr__pfet_01v8 w=1.12e+06u l=150000u
X11 Y A a_283_74# VNB sky130_fd_pr__nfet_01v8_lvt w=740000u l=150000u
.ends
* Copyright 2020 The SkyWater PDK Authors
*
* Licensed under the Apache License, Version 2.0 (the "License");
* you may not use this file except in compliance with the License.
* You may obtain a copy of the License at
*
*     https://www.apache.org/licenses/LICENSE-2.0
*
* Unless required by applicable law or agreed to in writing, software
* distributed under the License is distributed on an "AS IS" BASIS,
* WITHOUT WARRANTIES OR CONDITIONS OF ANY KIND, either express or implied.
* See the License for the specific language governing permissions and
* limitations under the License.
*
* SPDX-License-Identifier: Apache-2.0


.subckt sky130_fd_sc_hs__nand3_4 A B C VGND VNB VPB VPWR Y
X0 VPWR A Y VPB sky130_fd_pr__pfet_01v8 w=1.12e+06u l=150000u
X1 Y A a_27_82# VNB sky130_fd_pr__nfet_01v8_lvt w=740000u l=150000u
X2 a_27_82# A Y VNB sky130_fd_pr__nfet_01v8_lvt w=740000u l=150000u
X3 Y B VPWR VPB sky130_fd_pr__pfet_01v8 w=1.12e+06u l=150000u
X4 VPWR C Y VPB sky130_fd_pr__pfet_01v8 w=1.12e+06u l=150000u
X5 a_27_82# A Y VNB sky130_fd_pr__nfet_01v8_lvt w=740000u l=150000u
X6 a_27_82# B a_456_82# VNB sky130_fd_pr__nfet_01v8_lvt w=740000u l=150000u
X7 a_456_82# C VGND VNB sky130_fd_pr__nfet_01v8_lvt w=740000u l=150000u
X8 VGND C a_456_82# VNB sky130_fd_pr__nfet_01v8_lvt w=740000u l=150000u
X9 a_27_82# B a_456_82# VNB sky130_fd_pr__nfet_01v8_lvt w=740000u l=150000u
X10 Y A VPWR VPB sky130_fd_pr__pfet_01v8 w=1.12e+06u l=150000u
X11 VGND C a_456_82# VNB sky130_fd_pr__nfet_01v8_lvt w=740000u l=150000u
X12 Y A a_27_82# VNB sky130_fd_pr__nfet_01v8_lvt w=740000u l=150000u
X13 a_456_82# B a_27_82# VNB sky130_fd_pr__nfet_01v8_lvt w=740000u l=150000u
X14 VPWR B Y VPB sky130_fd_pr__pfet_01v8 w=1.12e+06u l=150000u
X15 a_456_82# B a_27_82# VNB sky130_fd_pr__nfet_01v8_lvt w=740000u l=150000u
X16 a_456_82# C VGND VNB sky130_fd_pr__nfet_01v8_lvt w=740000u l=150000u
X17 Y C VPWR VPB sky130_fd_pr__pfet_01v8 w=1.12e+06u l=150000u
.ends
* Copyright 2020 The SkyWater PDK Authors
*
* Licensed under the Apache License, Version 2.0 (the "License");
* you may not use this file except in compliance with the License.
* You may obtain a copy of the License at
*
*     https://www.apache.org/licenses/LICENSE-2.0
*
* Unless required by applicable law or agreed to in writing, software
* distributed under the License is distributed on an "AS IS" BASIS,
* WITHOUT WARRANTIES OR CONDITIONS OF ANY KIND, either express or implied.
* See the License for the specific language governing permissions and
* limitations under the License.
*
* SPDX-License-Identifier: Apache-2.0


.subckt sky130_fd_sc_hs__nand3_1 A B C VGND VNB VPB VPWR Y
X0 Y B VPWR VPB sky130_fd_pr__pfet_01v8 w=1.12e+06u l=150000u
X1 a_155_74# B a_233_74# VNB sky130_fd_pr__nfet_01v8_lvt w=740000u l=150000u
X2 VGND C a_155_74# VNB sky130_fd_pr__nfet_01v8_lvt w=740000u l=150000u
X3 VPWR C Y VPB sky130_fd_pr__pfet_01v8 w=1.12e+06u l=150000u
X4 a_233_74# A Y VNB sky130_fd_pr__nfet_01v8_lvt w=740000u l=150000u
X5 VPWR A Y VPB sky130_fd_pr__pfet_01v8 w=1.12e+06u l=150000u
.ends
* Copyright 2020 The SkyWater PDK Authors
*
* Licensed under the Apache License, Version 2.0 (the "License");
* you may not use this file except in compliance with the License.
* You may obtain a copy of the License at
*
*     https://www.apache.org/licenses/LICENSE-2.0
*
* Unless required by applicable law or agreed to in writing, software
* distributed under the License is distributed on an "AS IS" BASIS,
* WITHOUT WARRANTIES OR CONDITIONS OF ANY KIND, either express or implied.
* See the License for the specific language governing permissions and
* limitations under the License.
*
* SPDX-License-Identifier: Apache-2.0


.subckt sky130_fd_sc_hs__nand4_2 A B C D VGND VNB VPB VPWR Y
X0 a_515_74# B a_304_74# VNB sky130_fd_pr__nfet_01v8_lvt w=740000u l=150000u
X1 VPWR C Y VPB sky130_fd_pr__pfet_01v8 w=1.12e+06u l=150000u
X2 VPWR B Y VPB sky130_fd_pr__pfet_01v8 w=1.12e+06u l=150000u
X3 a_515_74# A Y VNB sky130_fd_pr__nfet_01v8_lvt w=740000u l=150000u
X4 VGND D a_27_74# VNB sky130_fd_pr__nfet_01v8_lvt w=740000u l=150000u
X5 Y A VPWR VPB sky130_fd_pr__pfet_01v8 w=1.12e+06u l=150000u
X6 Y D VPWR VPB sky130_fd_pr__pfet_01v8 w=1.12e+06u l=150000u
X7 a_27_74# C a_304_74# VNB sky130_fd_pr__nfet_01v8_lvt w=740000u l=150000u
X8 Y B VPWR VPB sky130_fd_pr__pfet_01v8 w=1.12e+06u l=150000u
X9 a_304_74# C a_27_74# VNB sky130_fd_pr__nfet_01v8_lvt w=740000u l=150000u
X10 VPWR D Y VPB sky130_fd_pr__pfet_01v8 w=1.12e+06u l=150000u
X11 VPWR A Y VPB sky130_fd_pr__pfet_01v8 w=1.12e+06u l=150000u
X12 Y C VPWR VPB sky130_fd_pr__pfet_01v8 w=1.12e+06u l=150000u
X13 a_27_74# D VGND VNB sky130_fd_pr__nfet_01v8_lvt w=740000u l=150000u
X14 Y A a_515_74# VNB sky130_fd_pr__nfet_01v8_lvt w=740000u l=150000u
X15 a_304_74# B a_515_74# VNB sky130_fd_pr__nfet_01v8_lvt w=740000u l=150000u
.ends
* Copyright 2020 The SkyWater PDK Authors
*
* Licensed under the Apache License, Version 2.0 (the "License");
* you may not use this file except in compliance with the License.
* You may obtain a copy of the License at
*
*     https://www.apache.org/licenses/LICENSE-2.0
*
* Unless required by applicable law or agreed to in writing, software
* distributed under the License is distributed on an "AS IS" BASIS,
* WITHOUT WARRANTIES OR CONDITIONS OF ANY KIND, either express or implied.
* See the License for the specific language governing permissions and
* limitations under the License.
*
* SPDX-License-Identifier: Apache-2.0


.subckt sky130_fd_sc_hs__nand4_4 A B C D VGND VNB VPB VPWR Y
X0 a_923_74# B a_554_74# VNB sky130_fd_pr__nfet_01v8_lvt w=740000u l=150000u
X1 a_923_74# A Y VNB sky130_fd_pr__nfet_01v8_lvt w=740000u l=150000u
X2 VPWR D Y VPB sky130_fd_pr__pfet_01v8 w=1.12e+06u l=150000u
X3 VPWR B Y VPB sky130_fd_pr__pfet_01v8 w=1.12e+06u l=150000u
X4 Y A VPWR VPB sky130_fd_pr__pfet_01v8 w=1.12e+06u l=150000u
X5 Y D VPWR VPB sky130_fd_pr__pfet_01v8 w=1.12e+06u l=150000u
X6 Y A a_923_74# VNB sky130_fd_pr__nfet_01v8_lvt w=740000u l=150000u
X7 a_27_74# C a_554_74# VNB sky130_fd_pr__nfet_01v8_lvt w=740000u l=150000u
X8 Y A a_923_74# VNB sky130_fd_pr__nfet_01v8_lvt w=740000u l=150000u
X9 a_923_74# B a_554_74# VNB sky130_fd_pr__nfet_01v8_lvt w=740000u l=150000u
X10 a_27_74# D VGND VNB sky130_fd_pr__nfet_01v8_lvt w=740000u l=150000u
X11 a_27_74# C a_554_74# VNB sky130_fd_pr__nfet_01v8_lvt w=740000u l=150000u
X12 Y C VPWR VPB sky130_fd_pr__pfet_01v8 w=1.12e+06u l=150000u
X13 a_554_74# C a_27_74# VNB sky130_fd_pr__nfet_01v8_lvt w=740000u l=150000u
X14 VPWR A Y VPB sky130_fd_pr__pfet_01v8 w=1.12e+06u l=150000u
X15 a_554_74# B a_923_74# VNB sky130_fd_pr__nfet_01v8_lvt w=740000u l=150000u
X16 VGND D a_27_74# VNB sky130_fd_pr__nfet_01v8_lvt w=740000u l=150000u
X17 VGND D a_27_74# VNB sky130_fd_pr__nfet_01v8_lvt w=740000u l=150000u
X18 a_554_74# C a_27_74# VNB sky130_fd_pr__nfet_01v8_lvt w=740000u l=150000u
X19 a_554_74# B a_923_74# VNB sky130_fd_pr__nfet_01v8_lvt w=740000u l=150000u
X20 VPWR C Y VPB sky130_fd_pr__pfet_01v8 w=1.12e+06u l=150000u
X21 a_27_74# D VGND VNB sky130_fd_pr__nfet_01v8_lvt w=740000u l=150000u
X22 Y B VPWR VPB sky130_fd_pr__pfet_01v8 w=1.12e+06u l=150000u
X23 a_923_74# A Y VNB sky130_fd_pr__nfet_01v8_lvt w=740000u l=150000u
.ends
* Copyright 2020 The SkyWater PDK Authors
*
* Licensed under the Apache License, Version 2.0 (the "License");
* you may not use this file except in compliance with the License.
* You may obtain a copy of the License at
*
*     https://www.apache.org/licenses/LICENSE-2.0
*
* Unless required by applicable law or agreed to in writing, software
* distributed under the License is distributed on an "AS IS" BASIS,
* WITHOUT WARRANTIES OR CONDITIONS OF ANY KIND, either express or implied.
* See the License for the specific language governing permissions and
* limitations under the License.
*
* SPDX-License-Identifier: Apache-2.0


.subckt sky130_fd_sc_hs__nand4_1 A B C D VGND VNB VPB VPWR Y
X0 VGND D a_181_74# VNB sky130_fd_pr__nfet_01v8_lvt w=740000u l=150000u
X1 VPWR D Y VPB sky130_fd_pr__pfet_01v8 w=1.12e+06u l=150000u
X2 a_259_74# B a_373_74# VNB sky130_fd_pr__nfet_01v8_lvt w=740000u l=150000u
X3 VPWR B Y VPB sky130_fd_pr__pfet_01v8 w=1.12e+06u l=150000u
X4 a_373_74# A Y VNB sky130_fd_pr__nfet_01v8_lvt w=740000u l=150000u
X5 a_181_74# C a_259_74# VNB sky130_fd_pr__nfet_01v8_lvt w=740000u l=150000u
X6 Y A VPWR VPB sky130_fd_pr__pfet_01v8 w=1.12e+06u l=150000u
X7 Y C VPWR VPB sky130_fd_pr__pfet_01v8 w=1.12e+06u l=150000u
.ends
* Copyright 2020 The SkyWater PDK Authors
*
* Licensed under the Apache License, Version 2.0 (the "License");
* you may not use this file except in compliance with the License.
* You may obtain a copy of the License at
*
*     https://www.apache.org/licenses/LICENSE-2.0
*
* Unless required by applicable law or agreed to in writing, software
* distributed under the License is distributed on an "AS IS" BASIS,
* WITHOUT WARRANTIES OR CONDITIONS OF ANY KIND, either express or implied.
* See the License for the specific language governing permissions and
* limitations under the License.
*
* SPDX-License-Identifier: Apache-2.0


.subckt sky130_fd_sc_hs__sdfxbp_1 CLK D SCD SCE VGND VNB VPB VPWR Q Q_N
X0 VPWR a_1529_74# a_1723_48# VPB sky130_fd_pr__pfet_01v8 w=1e+06u l=150000u
X1 VPWR a_2216_94# Q_N VPB sky130_fd_pr__pfet_01v8 w=1.12e+06u l=150000u
X2 a_1021_100# a_612_74# a_1180_496# VPB sky130_fd_pr__pfet_01v8 w=420000u l=150000u
X3 a_233_464# D a_296_74# VPB sky130_fd_pr__pfet_01v8 w=640000u l=150000u
X4 VPWR CLK a_612_74# VPB sky130_fd_pr__pfet_01v8 w=1.12e+06u l=150000u
X5 VGND CLK a_612_74# VNB sky130_fd_pr__nfet_01v8_lvt w=740000u l=150000u
X6 VGND a_1021_100# a_1243_398# VNB sky130_fd_pr__nfet_01v8_lvt w=550000u l=150000u
X7 VGND a_1723_48# Q VNB sky130_fd_pr__nfet_01v8_lvt w=740000u l=150000u
X8 a_218_74# D a_296_74# VNB sky130_fd_pr__nfet_01v8_lvt w=420000u l=150000u
X9 a_31_74# SCE VPWR VPB sky130_fd_pr__pfet_01v8 w=640000u l=150000u
X10 VGND a_31_74# a_218_74# VNB sky130_fd_pr__nfet_01v8_lvt w=420000u l=150000u
X11 a_2216_94# a_1723_48# VGND VNB sky130_fd_pr__nfet_01v8_lvt w=640000u l=150000u
X12 a_434_74# SCD VGND VNB sky130_fd_pr__nfet_01v8_lvt w=420000u l=150000u
X13 a_1681_74# a_1723_48# VGND VNB sky130_fd_pr__nfet_01v8_lvt w=420000u l=150000u
X14 a_1180_496# a_1243_398# VPWR VPB sky130_fd_pr__pfet_01v8 w=420000u l=150000u
X15 a_31_74# SCE VGND VNB sky130_fd_pr__nfet_01v8_lvt w=420000u l=150000u
X16 VPWR a_1723_48# Q VPB sky130_fd_pr__pfet_01v8 w=1.12e+06u l=150000u
X17 VPWR SCE a_233_464# VPB sky130_fd_pr__pfet_01v8 w=640000u l=150000u
X18 a_296_74# a_828_74# a_1021_100# VPB sky130_fd_pr__pfet_01v8 w=420000u l=150000u
X19 a_1529_74# a_828_74# a_1691_508# VPB sky130_fd_pr__pfet_01v8 w=420000u l=150000u
X20 a_1243_398# a_828_74# a_1529_74# VNB sky130_fd_pr__nfet_01v8_lvt w=550000u l=150000u
X21 a_296_74# a_31_74# a_407_464# VPB sky130_fd_pr__pfet_01v8 w=640000u l=150000u
X22 VPWR a_1021_100# a_1243_398# VPB sky130_fd_pr__pfet_01v8 w=840000u l=150000u
X23 a_1691_508# a_1723_48# VPWR VPB sky130_fd_pr__pfet_01v8 w=420000u l=150000u
X24 a_296_74# SCE a_434_74# VNB sky130_fd_pr__nfet_01v8_lvt w=420000u l=150000u
X25 a_1157_100# a_1243_398# VGND VNB sky130_fd_pr__nfet_01v8_lvt w=420000u l=150000u
X26 VPWR a_612_74# a_828_74# VPB sky130_fd_pr__pfet_01v8 w=1.12e+06u l=150000u
X27 a_2216_94# a_1723_48# VPWR VPB sky130_fd_pr__pfet_01v8 w=840000u l=150000u
X28 a_296_74# a_612_74# a_1021_100# VNB sky130_fd_pr__nfet_01v8_lvt w=420000u l=150000u
X29 VGND a_1529_74# a_1723_48# VNB sky130_fd_pr__nfet_01v8_lvt w=550000u l=150000u
X30 a_1021_100# a_828_74# a_1157_100# VNB sky130_fd_pr__nfet_01v8_lvt w=420000u l=150000u
X31 a_407_464# SCD VPWR VPB sky130_fd_pr__pfet_01v8 w=640000u l=150000u
X32 VGND a_2216_94# Q_N VNB sky130_fd_pr__nfet_01v8_lvt w=740000u l=150000u
X33 VGND a_612_74# a_828_74# VNB sky130_fd_pr__nfet_01v8_lvt w=740000u l=150000u
X34 a_1243_398# a_612_74# a_1529_74# VPB sky130_fd_pr__pfet_01v8 w=840000u l=150000u
X35 a_1529_74# a_612_74# a_1681_74# VNB sky130_fd_pr__nfet_01v8_lvt w=420000u l=150000u
.ends
* Copyright 2020 The SkyWater PDK Authors
*
* Licensed under the Apache License, Version 2.0 (the "License");
* you may not use this file except in compliance with the License.
* You may obtain a copy of the License at
*
*     https://www.apache.org/licenses/LICENSE-2.0
*
* Unless required by applicable law or agreed to in writing, software
* distributed under the License is distributed on an "AS IS" BASIS,
* WITHOUT WARRANTIES OR CONDITIONS OF ANY KIND, either express or implied.
* See the License for the specific language governing permissions and
* limitations under the License.
*
* SPDX-License-Identifier: Apache-2.0


.subckt sky130_fd_sc_hs__sdfxbp_2 CLK D SCD SCE VGND VNB VPB VPWR Q Q_N
X0 VPWR a_1511_74# a_1711_48# VPB sky130_fd_pr__pfet_01v8 w=1e+06u l=150000u
X1 a_2322_368# a_1711_48# VPWR VPB sky130_fd_pr__pfet_01v8 w=1e+06u l=150000u
X2 VPWR a_1021_97# a_1243_48# VPB sky130_fd_pr__pfet_01v8 w=840000u l=150000u
X3 a_36_74# SCE VGND VNB sky130_fd_pr__nfet_01v8_lvt w=420000u l=150000u
X4 a_301_74# a_630_74# a_1021_97# VNB sky130_fd_pr__nfet_01v8_lvt w=420000u l=150000u
X5 a_1021_97# a_630_74# a_1217_499# VPB sky130_fd_pr__pfet_01v8 w=420000u l=150000u
X6 VPWR a_1711_48# Q VPB sky130_fd_pr__pfet_01v8 w=1.12e+06u l=150000u
X7 a_423_453# SCD VPWR VPB sky130_fd_pr__pfet_01v8 w=640000u l=150000u
X8 a_301_74# a_828_74# a_1021_97# VPB sky130_fd_pr__pfet_01v8 w=420000u l=150000u
X9 VPWR SCE a_238_453# VPB sky130_fd_pr__pfet_01v8 w=640000u l=150000u
X10 a_301_74# SCE a_450_74# VNB sky130_fd_pr__nfet_01v8_lvt w=420000u l=150000u
X11 VGND a_1021_97# a_1243_48# VNB sky130_fd_pr__nfet_01v8_lvt w=550000u l=150000u
X12 Q_N a_2322_368# VPWR VPB sky130_fd_pr__pfet_01v8 w=1.12e+06u l=150000u
X13 a_2322_368# a_1711_48# VGND VNB sky130_fd_pr__nfet_01v8_lvt w=640000u l=150000u
X14 Q_N a_2322_368# VGND VNB sky130_fd_pr__nfet_01v8_lvt w=740000u l=150000u
X15 a_238_453# D a_301_74# VPB sky130_fd_pr__pfet_01v8 w=640000u l=150000u
X16 a_301_74# a_36_74# a_423_453# VPB sky130_fd_pr__pfet_01v8 w=640000u l=150000u
X17 VGND a_2322_368# Q_N VNB sky130_fd_pr__nfet_01v8_lvt w=740000u l=150000u
X18 a_1511_74# a_828_74# a_1691_508# VPB sky130_fd_pr__pfet_01v8 w=420000u l=150000u
X19 a_1663_74# a_1711_48# VGND VNB sky130_fd_pr__nfet_01v8_lvt w=420000u l=150000u
X20 a_1021_97# a_828_74# a_1173_97# VNB sky130_fd_pr__nfet_01v8_lvt w=420000u l=150000u
X21 a_1173_97# a_1243_48# VGND VNB sky130_fd_pr__nfet_01v8_lvt w=420000u l=150000u
X22 a_1243_48# a_828_74# a_1511_74# VNB sky130_fd_pr__nfet_01v8_lvt w=550000u l=150000u
X23 a_450_74# SCD VGND VNB sky130_fd_pr__nfet_01v8_lvt w=420000u l=150000u
X24 a_1511_74# a_630_74# a_1663_74# VNB sky130_fd_pr__nfet_01v8_lvt w=420000u l=150000u
X25 a_1691_508# a_1711_48# VPWR VPB sky130_fd_pr__pfet_01v8 w=420000u l=150000u
X26 VPWR a_630_74# a_828_74# VPB sky130_fd_pr__pfet_01v8 w=1.12e+06u l=150000u
X27 VGND a_1711_48# Q VNB sky130_fd_pr__nfet_01v8_lvt w=740000u l=150000u
X28 VPWR CLK a_630_74# VPB sky130_fd_pr__pfet_01v8 w=1.12e+06u l=150000u
X29 VGND CLK a_630_74# VNB sky130_fd_pr__nfet_01v8_lvt w=740000u l=150000u
X30 a_36_74# SCE VPWR VPB sky130_fd_pr__pfet_01v8 w=640000u l=150000u
X31 Q a_1711_48# VPWR VPB sky130_fd_pr__pfet_01v8 w=1.12e+06u l=150000u
X32 a_1217_499# a_1243_48# VPWR VPB sky130_fd_pr__pfet_01v8 w=420000u l=150000u
X33 VPWR a_2322_368# Q_N VPB sky130_fd_pr__pfet_01v8 w=1.12e+06u l=150000u
X34 a_223_74# D a_301_74# VNB sky130_fd_pr__nfet_01v8_lvt w=420000u l=150000u
X35 VGND a_1511_74# a_1711_48# VNB sky130_fd_pr__nfet_01v8_lvt w=740000u l=150000u
X36 VGND a_36_74# a_223_74# VNB sky130_fd_pr__nfet_01v8_lvt w=420000u l=150000u
X37 VGND a_630_74# a_828_74# VNB sky130_fd_pr__nfet_01v8_lvt w=740000u l=150000u
X38 a_1243_48# a_630_74# a_1511_74# VPB sky130_fd_pr__pfet_01v8 w=840000u l=150000u
X39 Q a_1711_48# VGND VNB sky130_fd_pr__nfet_01v8_lvt w=740000u l=150000u
.ends
* Copyright 2020 The SkyWater PDK Authors
*
* Licensed under the Apache License, Version 2.0 (the "License");
* you may not use this file except in compliance with the License.
* You may obtain a copy of the License at
*
*     https://www.apache.org/licenses/LICENSE-2.0
*
* Unless required by applicable law or agreed to in writing, software
* distributed under the License is distributed on an "AS IS" BASIS,
* WITHOUT WARRANTIES OR CONDITIONS OF ANY KIND, either express or implied.
* See the License for the specific language governing permissions and
* limitations under the License.
*
* SPDX-License-Identifier: Apache-2.0


.subckt sky130_fd_sc_hs__o221ai_1 A1 A2 B1 B2 C1 VGND VNB VPB VPWR Y
X0 a_114_74# B2 a_239_74# VNB sky130_fd_pr__nfet_01v8_lvt w=740000u l=150000u
X1 Y C1 VPWR VPB sky130_fd_pr__pfet_01v8 w=1.12e+06u l=150000u
X2 a_239_74# B1 a_114_74# VNB sky130_fd_pr__nfet_01v8_lvt w=740000u l=150000u
X3 Y A2 a_522_368# VPB sky130_fd_pr__pfet_01v8 w=1.12e+06u l=150000u
X4 VGND A1 a_239_74# VNB sky130_fd_pr__nfet_01v8_lvt w=740000u l=150000u
X5 VPWR B1 a_324_368# VPB sky130_fd_pr__pfet_01v8 w=1.12e+06u l=150000u
X6 a_324_368# B2 Y VPB sky130_fd_pr__pfet_01v8 w=1.12e+06u l=150000u
X7 a_239_74# A2 VGND VNB sky130_fd_pr__nfet_01v8_lvt w=740000u l=150000u
X8 Y C1 a_114_74# VNB sky130_fd_pr__nfet_01v8_lvt w=740000u l=150000u
X9 a_522_368# A1 VPWR VPB sky130_fd_pr__pfet_01v8 w=1.12e+06u l=150000u
.ends
* Copyright 2020 The SkyWater PDK Authors
*
* Licensed under the Apache License, Version 2.0 (the "License");
* you may not use this file except in compliance with the License.
* You may obtain a copy of the License at
*
*     https://www.apache.org/licenses/LICENSE-2.0
*
* Unless required by applicable law or agreed to in writing, software
* distributed under the License is distributed on an "AS IS" BASIS,
* WITHOUT WARRANTIES OR CONDITIONS OF ANY KIND, either express or implied.
* See the License for the specific language governing permissions and
* limitations under the License.
*
* SPDX-License-Identifier: Apache-2.0


.subckt sky130_fd_sc_hs__o221ai_4 A1 A2 B1 B2 C1 VGND VNB VPB VPWR Y
X0 VPWR C1 Y VPB sky130_fd_pr__pfet_01v8 w=1.12e+06u l=150000u
X1 VGND A2 a_483_74# VNB sky130_fd_pr__nfet_01v8_lvt w=740000u l=150000u
X2 VGND A2 a_483_74# VNB sky130_fd_pr__nfet_01v8_lvt w=740000u l=150000u
X3 Y C1 a_27_84# VNB sky130_fd_pr__nfet_01v8_lvt w=740000u l=150000u
X4 VPWR C1 Y VPB sky130_fd_pr__pfet_01v8 w=1.12e+06u l=150000u
X5 a_27_84# B1 a_483_74# VNB sky130_fd_pr__nfet_01v8_lvt w=740000u l=150000u
X6 a_483_74# B1 a_27_84# VNB sky130_fd_pr__nfet_01v8_lvt w=740000u l=150000u
X7 a_483_74# B2 a_27_84# VNB sky130_fd_pr__nfet_01v8_lvt w=740000u l=150000u
X8 a_483_74# A2 VGND VNB sky130_fd_pr__nfet_01v8_lvt w=740000u l=150000u
X9 VPWR B1 a_508_368# VPB sky130_fd_pr__pfet_01v8 w=1.12e+06u l=150000u
X10 a_483_74# B1 a_27_84# VNB sky130_fd_pr__nfet_01v8_lvt w=740000u l=150000u
X11 Y A2 a_1288_368# VPB sky130_fd_pr__pfet_01v8 w=1.12e+06u l=150000u
X12 Y B2 a_508_368# VPB sky130_fd_pr__pfet_01v8 w=1.12e+06u l=150000u
X13 Y A2 a_1288_368# VPB sky130_fd_pr__pfet_01v8 w=1.12e+06u l=150000u
X14 a_27_84# B2 a_483_74# VNB sky130_fd_pr__nfet_01v8_lvt w=740000u l=150000u
X15 a_508_368# B1 VPWR VPB sky130_fd_pr__pfet_01v8 w=1.12e+06u l=150000u
X16 VPWR A1 a_1288_368# VPB sky130_fd_pr__pfet_01v8 w=1.12e+06u l=150000u
X17 a_1288_368# A1 VPWR VPB sky130_fd_pr__pfet_01v8 w=1.12e+06u l=150000u
X18 Y C1 VPWR VPB sky130_fd_pr__pfet_01v8 w=1.12e+06u l=150000u
X19 a_27_84# C1 Y VNB sky130_fd_pr__nfet_01v8_lvt w=740000u l=150000u
X20 Y C1 VPWR VPB sky130_fd_pr__pfet_01v8 w=1.12e+06u l=150000u
X21 Y B2 a_508_368# VPB sky130_fd_pr__pfet_01v8 w=1.12e+06u l=150000u
X22 a_483_74# B2 a_27_84# VNB sky130_fd_pr__nfet_01v8_lvt w=740000u l=150000u
X23 a_483_74# A1 VGND VNB sky130_fd_pr__nfet_01v8_lvt w=740000u l=150000u
X24 a_483_74# A1 VGND VNB sky130_fd_pr__nfet_01v8_lvt w=740000u l=150000u
X25 VPWR A1 a_1288_368# VPB sky130_fd_pr__pfet_01v8 w=1.12e+06u l=150000u
X26 a_1288_368# A2 Y VPB sky130_fd_pr__pfet_01v8 w=1.12e+06u l=150000u
X27 a_27_84# C1 Y VNB sky130_fd_pr__nfet_01v8_lvt w=740000u l=150000u
X28 a_508_368# B2 Y VPB sky130_fd_pr__pfet_01v8 w=1.12e+06u l=150000u
X29 VPWR B1 a_508_368# VPB sky130_fd_pr__pfet_01v8 w=1.12e+06u l=150000u
X30 a_1288_368# A2 Y VPB sky130_fd_pr__pfet_01v8 w=1.12e+06u l=150000u
X31 a_508_368# B2 Y VPB sky130_fd_pr__pfet_01v8 w=1.12e+06u l=150000u
X32 a_508_368# B1 VPWR VPB sky130_fd_pr__pfet_01v8 w=1.12e+06u l=150000u
X33 Y C1 a_27_84# VNB sky130_fd_pr__nfet_01v8_lvt w=740000u l=150000u
X34 VGND A1 a_483_74# VNB sky130_fd_pr__nfet_01v8_lvt w=740000u l=150000u
X35 VGND A1 a_483_74# VNB sky130_fd_pr__nfet_01v8_lvt w=740000u l=150000u
X36 a_1288_368# A1 VPWR VPB sky130_fd_pr__pfet_01v8 w=1.12e+06u l=150000u
X37 a_27_84# B2 a_483_74# VNB sky130_fd_pr__nfet_01v8_lvt w=740000u l=150000u
X38 a_27_84# B1 a_483_74# VNB sky130_fd_pr__nfet_01v8_lvt w=740000u l=150000u
X39 a_483_74# A2 VGND VNB sky130_fd_pr__nfet_01v8_lvt w=740000u l=150000u
.ends
* Copyright 2020 The SkyWater PDK Authors
*
* Licensed under the Apache License, Version 2.0 (the "License");
* you may not use this file except in compliance with the License.
* You may obtain a copy of the License at
*
*     https://www.apache.org/licenses/LICENSE-2.0
*
* Unless required by applicable law or agreed to in writing, software
* distributed under the License is distributed on an "AS IS" BASIS,
* WITHOUT WARRANTIES OR CONDITIONS OF ANY KIND, either express or implied.
* See the License for the specific language governing permissions and
* limitations under the License.
*
* SPDX-License-Identifier: Apache-2.0


.subckt sky130_fd_sc_hs__o221ai_2 A1 A2 B1 B2 C1 VGND VNB VPB VPWR Y
X0 a_376_368# B1 VPWR VPB sky130_fd_pr__pfet_01v8 w=1.12e+06u l=150000u
X1 VPWR B1 a_376_368# VPB sky130_fd_pr__pfet_01v8 w=1.12e+06u l=150000u
X2 VPWR C1 Y VPB sky130_fd_pr__pfet_01v8 w=1.12e+06u l=150000u
X3 a_776_368# A2 Y VPB sky130_fd_pr__pfet_01v8 w=1.12e+06u l=150000u
X4 a_311_85# B1 a_27_74# VNB sky130_fd_pr__nfet_01v8_lvt w=740000u l=150000u
X5 Y C1 a_27_74# VNB sky130_fd_pr__nfet_01v8_lvt w=740000u l=150000u
X6 a_311_85# A1 VGND VNB sky130_fd_pr__nfet_01v8_lvt w=740000u l=150000u
X7 a_27_74# B1 a_311_85# VNB sky130_fd_pr__nfet_01v8_lvt w=740000u l=150000u
X8 a_27_74# B2 a_311_85# VNB sky130_fd_pr__nfet_01v8_lvt w=740000u l=150000u
X9 a_311_85# A2 VGND VNB sky130_fd_pr__nfet_01v8_lvt w=740000u l=150000u
X10 VGND A2 a_311_85# VNB sky130_fd_pr__nfet_01v8_lvt w=740000u l=150000u
X11 Y A2 a_776_368# VPB sky130_fd_pr__pfet_01v8 w=1.12e+06u l=150000u
X12 a_311_85# B2 a_27_74# VNB sky130_fd_pr__nfet_01v8_lvt w=740000u l=150000u
X13 Y C1 VPWR VPB sky130_fd_pr__pfet_01v8 w=1.12e+06u l=150000u
X14 a_776_368# A1 VPWR VPB sky130_fd_pr__pfet_01v8 w=1.12e+06u l=150000u
X15 Y B2 a_376_368# VPB sky130_fd_pr__pfet_01v8 w=1.12e+06u l=150000u
X16 a_376_368# B2 Y VPB sky130_fd_pr__pfet_01v8 w=1.12e+06u l=150000u
X17 VPWR A1 a_776_368# VPB sky130_fd_pr__pfet_01v8 w=1.12e+06u l=150000u
X18 a_27_74# C1 Y VNB sky130_fd_pr__nfet_01v8_lvt w=740000u l=150000u
X19 VGND A1 a_311_85# VNB sky130_fd_pr__nfet_01v8_lvt w=740000u l=150000u
.ends
* Copyright 2020 The SkyWater PDK Authors
*
* Licensed under the Apache License, Version 2.0 (the "License");
* you may not use this file except in compliance with the License.
* You may obtain a copy of the License at
*
*     https://www.apache.org/licenses/LICENSE-2.0
*
* Unless required by applicable law or agreed to in writing, software
* distributed under the License is distributed on an "AS IS" BASIS,
* WITHOUT WARRANTIES OR CONDITIONS OF ANY KIND, either express or implied.
* See the License for the specific language governing permissions and
* limitations under the License.
*
* SPDX-License-Identifier: Apache-2.0


.subckt sky130_fd_sc_hs__dlxtn_2 D GATE_N VGND VNB VPB VPWR Q
X0 VPWR GATE_N a_232_82# VPB sky130_fd_pr__pfet_01v8 w=840000u l=150000u
X1 a_669_392# a_369_392# a_875_139# VNB sky130_fd_pr__nfet_01v8_lvt w=420000u l=150000u
X2 VPWR a_842_405# Q VPB sky130_fd_pr__pfet_01v8 w=1.12e+06u l=150000u
X3 a_27_120# D VPWR VPB sky130_fd_pr__pfet_01v8 w=840000u l=150000u
X4 VGND GATE_N a_232_82# VNB sky130_fd_pr__nfet_01v8_lvt w=740000u l=150000u
X5 VGND a_669_392# a_842_405# VNB sky130_fd_pr__nfet_01v8_lvt w=740000u l=150000u
X6 VGND a_842_405# Q VNB sky130_fd_pr__nfet_01v8_lvt w=740000u l=150000u
X7 Q a_842_405# VGND VNB sky130_fd_pr__nfet_01v8_lvt w=740000u l=150000u
X8 a_27_120# D VGND VNB sky130_fd_pr__nfet_01v8_lvt w=550000u l=150000u
X9 VPWR a_27_120# a_585_392# VPB sky130_fd_pr__pfet_01v8 w=1e+06u l=150000u
X10 a_369_392# a_232_82# VGND VNB sky130_fd_pr__nfet_01v8_lvt w=740000u l=150000u
X11 a_669_392# a_232_82# a_791_503# VPB sky130_fd_pr__pfet_01v8 w=420000u l=150000u
X12 Q a_842_405# VPWR VPB sky130_fd_pr__pfet_01v8 w=1.12e+06u l=150000u
X13 a_585_392# a_369_392# a_669_392# VPB sky130_fd_pr__pfet_01v8 w=1e+06u l=150000u
X14 a_791_503# a_842_405# VPWR VPB sky130_fd_pr__pfet_01v8 w=420000u l=150000u
X15 a_658_79# a_232_82# a_669_392# VNB sky130_fd_pr__nfet_01v8_lvt w=640000u l=150000u
X16 a_369_392# a_232_82# VPWR VPB sky130_fd_pr__pfet_01v8 w=840000u l=150000u
X17 a_875_139# a_842_405# VGND VNB sky130_fd_pr__nfet_01v8_lvt w=420000u l=150000u
X18 VPWR a_669_392# a_842_405# VPB sky130_fd_pr__pfet_01v8 w=1.12e+06u l=150000u
X19 VGND a_27_120# a_658_79# VNB sky130_fd_pr__nfet_01v8_lvt w=640000u l=150000u
.ends
* Copyright 2020 The SkyWater PDK Authors
*
* Licensed under the Apache License, Version 2.0 (the "License");
* you may not use this file except in compliance with the License.
* You may obtain a copy of the License at
*
*     https://www.apache.org/licenses/LICENSE-2.0
*
* Unless required by applicable law or agreed to in writing, software
* distributed under the License is distributed on an "AS IS" BASIS,
* WITHOUT WARRANTIES OR CONDITIONS OF ANY KIND, either express or implied.
* See the License for the specific language governing permissions and
* limitations under the License.
*
* SPDX-License-Identifier: Apache-2.0


.subckt sky130_fd_sc_hs__dlxtn_4 D GATE_N VGND VNB VPB VPWR Q
X0 a_27_115# D VGND VNB sky130_fd_pr__nfet_01v8_lvt w=550000u l=150000u
X1 Q a_840_395# VPWR VPB sky130_fd_pr__pfet_01v8 w=1.12e+06u l=150000u
X2 VPWR GATE_N a_230_424# VPB sky130_fd_pr__pfet_01v8 w=840000u l=150000u
X3 VPWR a_27_115# a_591_392# VPB sky130_fd_pr__pfet_01v8 w=1e+06u l=150000u
X4 Q a_840_395# VPWR VPB sky130_fd_pr__pfet_01v8 w=1.12e+06u l=150000u
X5 a_591_392# a_369_392# a_675_392# VPB sky130_fd_pr__pfet_01v8 w=1e+06u l=150000u
X6 VGND GATE_N a_230_424# VNB sky130_fd_pr__nfet_01v8_lvt w=740000u l=150000u
X7 a_675_392# a_369_392# a_895_123# VNB sky130_fd_pr__nfet_01v8_lvt w=420000u l=150000u
X8 a_895_123# a_840_395# VGND VNB sky130_fd_pr__nfet_01v8_lvt w=420000u l=150000u