* Copyright 2020 The SkyWater PDK Authors
*
* Licensed under the Apache License, Version 2.0 (the "License");
* you may not use this file except in compliance with the License.
* You may obtain a copy of the License at
*
*     https://www.apache.org/licenses/LICENSE-2.0
*
* Unless required by applicable law or agreed to in writing, software
* distributed under the License is distributed on an "AS IS" BASIS,
* WITHOUT WARRANTIES OR CONDITIONS OF ANY KIND, either express or implied.
* See the License for the specific language governing permissions and
* limitations under the License.
*
* SPDX-License-Identifier: Apache-2.0

.SUBCKT sky130_fd_sc_hs__a2111o_1 A1 A2 B1 C1 D1 VGND VNB VPB VPWR X
*.PININFO A1:I A2:I B1:I C1:I D1:I VGND:I VNB:I VPB:I VPWR:I X:O
MMPA0 pndA A1 VPWR VPB pfet_01v8 m=1 w=1.0 l=0.15 mult=1 sa=0.265
+ sb=0.265 sd=0.28 topography=normal area=0.063 perim=1.14
MMPA1 pndA A2 VPWR VPB pfet_01v8 m=1 w=1.0 l=0.15 mult=1 sa=0.265
+ sb=0.265 sd=0.28 topography=normal area=0.063 perim=1.14
MMPB0 pndB B1 pndA VPB pfet_01v8 m=1 w=1.0 l=0.15 mult=1 sa=0.265
+ sb=0.265 sd=0.28 topography=normal area=0.063 perim=1.14
MMPC0 pndC C1 pndB VPB pfet_01v8 m=1 w=1.0 l=0.15 mult=1 sa=0.265
+ sb=0.265 sd=0.28 topography=normal area=0.063 perim=1.14
MMPD0 y D1 pndC VPB pfet_01v8 m=1 w=1.0 l=0.15 mult=1 sa=0.265
+ sb=0.265 sd=0.28 topography=normal area=0.063 perim=1.14
MMIPX X y VPWR VPB pfet_01v8 m=1 w=1.12 l=0.15 mult=1 sa=0.265
+ sb=0.265 sd=0.28 topography=normal area=0.063 perim=1.14
MMNA0 y A1 sndA1 VNB nfet_01v8_lvt m=1 w=0.64 l=0.15 mult=1 sa=0.265
+ sb=0.265 sd=0.28 topography=normal area=0.063 perim=1.14
MMNA1 sndA1 A2 VGND VNB nfet_01v8_lvt m=1 w=0.64 l=0.15 mult=1
+ sa=0.265 sb=0.265 sd=0.28 topography=normal area=0.063 perim=1.14
MMNB0 y B1 VGND VNB nfet_01v8_lvt m=1 w=0.64 l=0.15 mult=1 sa=0.265
+ sb=0.265 sd=0.28 topography=normal area=0.063 perim=1.14
MMNC0 y C1 VGND VNB nfet_01v8_lvt m=1 w=0.64 l=0.15 mult=1 sa=0.265
+ sb=0.265 sd=0.28 topography=normal area=0.063 perim=1.14
MMND0 y D1 VGND VNB nfet_01v8_lvt m=1 w=0.64 l=0.15 mult=1 sa=0.265
+ sb=0.265 sd=0.28 topography=normal area=0.063 perim=1.14
MMINX X y VGND VNB nfet_01v8_lvt m=1 w=0.74 l=0.15 mult=1 sa=0.265
+ sb=0.265 sd=0.28 topography=normal area=0.063 perim=1.14
.ENDS sky130_fd_sc_hs__a2111o_1
* Copyright 2020 The SkyWater PDK Authors
*
* Licensed under the Apache License, Version 2.0 (the "License");
* you may not use this file except in compliance with the License.
* You may obtain a copy of the License at
*
*     https://www.apache.org/licenses/LICENSE-2.0
*
* Unless required by applicable law or agreed to in writing, software
* distributed under the License is distributed on an "AS IS" BASIS,
* WITHOUT WARRANTIES OR CONDITIONS OF ANY KIND, either express or implied.
* See the License for the specific language governing permissions and
* limitations under the License.
*
* SPDX-License-Identifier: Apache-2.0

.SUBCKT sky130_fd_sc_hs__a2111o_2 A1 A2 B1 C1 D1 VGND VNB VPB VPWR X
*.PININFO A1:I A2:I B1:I C1:I D1:I VGND:I VNB:I VPB:I VPWR:I X:O
MMPA0 pndA A1 VPWR VPB pfet_01v8 m=1 w=1.12 l=0.15 mult=1 sa=0.265
+ sb=0.265 sd=0.28 topography=normal area=0.063 perim=1.14
MMPA1 pndA A2 VPWR VPB pfet_01v8 m=1 w=1.12 l=0.15 mult=1 sa=0.265
+ sb=0.265 sd=0.28 topography=normal area=0.063 perim=1.14
MMPB0 pndB B1 pndA VPB pfet_01v8 m=1 w=1.12 l=0.15 mult=1 sa=0.265
+ sb=0.265 sd=0.28 topography=normal area=0.063 perim=1.14
MMPC0 pndC C1 pndB VPB pfet_01v8 m=1 w=1.12 l=0.15 mult=1 sa=0.265
+ sb=0.265 sd=0.28 topography=normal area=0.063 perim=1.14
MMPD0 y D1 pndC VPB pfet_01v8 m=1 w=1.12 l=0.15 mult=1 sa=0.265
+ sb=0.265 sd=0.28 topography=normal area=0.063 perim=1.14
MMIPX X y VPWR VPB pfet_01v8 m=2 w=1.12 l=0.15 mult=1 sa=0.265
+ sb=0.265 sd=0.28 topography=normal area=0.063 perim=1.14
MMNA0 y A1 sndA1 VNB nfet_01v8_lvt m=1 w=0.74 l=0.15 mult=1 sa=0.265
+ sb=0.265 sd=0.28 topography=normal area=0.063 perim=1.14
MMNA1 sndA1 A2 VGND VNB nfet_01v8_lvt m=1 w=0.74 l=0.15 mult=1
+ sa=0.265 sb=0.265 sd=0.28 topography=normal area=0.063 perim=1.14
MMNB0 y B1 VGND VNB nfet_01v8_lvt m=1 w=0.74 l=0.15 mult=1 sa=0.265
+ sb=0.265 sd=0.28 topography=normal area=0.063 perim=1.14
MMNC0 y C1 VGND VNB nfet_01v8_lvt m=1 w=0.74 l=0.15 mult=1 sa=0.265
+ sb=0.265 sd=0.28 topography=normal area=0.063 perim=1.14
MMND0 y D1 VGND VNB nfet_01v8_lvt m=1 w=0.74 l=0.15 mult=1 sa=0.265
+ sb=0.265 sd=0.28 topography=normal area=0.063 perim=1.14
MMINX X y VGND VNB nfet_01v8_lvt m=2 w=0.74 l=0.15 mult=1 sa=0.265
+ sb=0.265 sd=0.28 topography=normal area=0.063 perim=1.14
.ENDS sky130_fd_sc_hs__a2111o_2
* Copyright 2020 The SkyWater PDK Authors
*
* Licensed under the Apache License, Version 2.0 (the "License");
* you may not use this file except in compliance with the License.
* You may obtain a copy of the License at
*
*     https://www.apache.org/licenses/LICENSE-2.0
*
* Unless required by applicable law or agreed to in writing, software
* distributed under the License is distributed on an "AS IS" BASIS,
* WITHOUT WARRANTIES OR CONDITIONS OF ANY KIND, either express or implied.
* See the License for the specific language governing permissions and
* limitations under the License.
*
* SPDX-License-Identifier: Apache-2.0

.SUBCKT sky130_fd_sc_hs__a2111o_4 A1 A2 B1 C1 D1 VGND VNB VPB VPWR X
*.PININFO A1:I A2:I B1:I C1:I D1:I VGND:I VNB:I VPB:I VPWR:I X:O
MMPA0 pndA A1 VPWR VPB pfet_01v8 m=2 w=1.0 l=0.15 mult=1 sa=0.265
+ sb=0.265 sd=0.28 topography=normal area=0.063 perim=1.14
MMPA1 pndA A2 VPWR VPB pfet_01v8 m=2 w=1.0 l=0.15 mult=1 sa=0.265
+ sb=0.265 sd=0.28 topography=normal area=0.063 perim=1.14
MMPB0 pndB B1 pndA VPB pfet_01v8 m=2 w=1.0 l=0.15 mult=1 sa=0.265
+ sb=0.265 sd=0.28 topography=normal area=0.063 perim=1.14
MMPC0 pndC C1 pndB VPB pfet_01v8 m=2 w=1.0 l=0.15 mult=1 sa=0.265
+ sb=0.265 sd=0.28 topography=normal area=0.063 perim=1.14
MMPD0 y D1 pndC VPB pfet_01v8 m=2 w=1.0 l=0.15 mult=1 sa=0.265
+ sb=0.265 sd=0.28 topography=normal area=0.063 perim=1.14
MMIPX X y VPWR VPB pfet_01v8 m=4 w=1.12 l=0.15 mult=1 sa=0.265
+ sb=0.265 sd=0.28 topography=normal area=0.063 perim=1.14
MMNA0 y A1 sndA1 VNB nfet_01v8_lvt m=2 w=0.64 l=0.15 mult=1 sa=0.265
+ sb=0.265 sd=0.28 topography=normal area=0.063 perim=1.14
MMNA1 sndA1 A2 VGND VNB nfet_01v8_lvt m=2 w=0.64 l=0.15 mult=1
+ sa=0.265 sb=0.265 sd=0.28 topography=normal area=0.063 perim=1.14
MMNB0 y B1 VGND VNB nfet_01v8_lvt m=2 w=0.64 l=0.15 mult=1 sa=0.265
+ sb=0.265 sd=0.28 topography=normal area=0.063 perim=1.14
MMNC0 y C1 VGND VNB nfet_01v8_lvt m=2 w=0.64 l=0.15 mult=1 sa=0.265
+ sb=0.265 sd=0.28 topography=normal area=0.063 perim=1.14
MMND0 y D1 VGND VNB nfet_01v8_lvt m=2 w=0.64 l=0.15 mult=1 sa=0.265
+ sb=0.265 sd=0.28 topography=normal area=0.063 perim=1.14
MMINX X y VGND VNB nfet_01v8_lvt m=4 w=0.74 l=0.15 mult=1 sa=0.265
+ sb=0.265 sd=0.28 topography=normal area=0.063 perim=1.14
.ENDS sky130_fd_sc_hs__a2111o_4
* Copyright 2020 The SkyWater PDK Authors
*
* Licensed under the Apache License, Version 2.0 (the "License");
* you may not use this file except in compliance with the License.
* You may obtain a copy of the License at
*
*     https://www.apache.org/licenses/LICENSE-2.0
*
* Unless required by applicable law or agreed to in writing, software
* distributed under the License is distributed on an "AS IS" BASIS,
* WITHOUT WARRANTIES OR CONDITIONS OF ANY KIND, either express or implied.
* See the License for the specific language governing permissions and
* limitations under the License.
*
* SPDX-License-Identifier: Apache-2.0

.SUBCKT sky130_fd_sc_hs__a2111oi_1 A1 A2 B1 C1 D1 VGND VNB VPB VPWR Y
*.PININFO A1:I A2:I B1:I C1:I D1:I VGND:I VNB:I VPB:I VPWR:I Y:O
MMPA0 pndA A1 VPWR VPB pfet_01v8 m=1 w=1.12 l=0.15 mult=1 sa=0.265
+ sb=0.265 sd=0.28 topography=normal area=0.063 perim=1.14
MMPA1 pndA A2 VPWR VPB pfet_01v8 m=1 w=1.12 l=0.15 mult=1 sa=0.265
+ sb=0.265 sd=0.28 topography=normal area=0.063 perim=1.14
MMPB0 pndB B1 pndA VPB pfet_01v8 m=1 w=1.12 l=0.15 mult=1 sa=0.265
+ sb=0.265 sd=0.28 topography=normal area=0.063 perim=1.14
MMPC0 pndC C1 pndB VPB pfet_01v8 m=1 w=1.12 l=0.15 mult=1 sa=0.265
+ sb=0.265 sd=0.28 topography=normal area=0.063 perim=1.14
MMPD0 Y D1 pndC VPB pfet_01v8 m=1 w=1.12 l=0.15 mult=1 sa=0.265
+ sb=0.265 sd=0.28 topography=normal area=0.063 perim=1.14
MMNA0 Y A1 sndA1 VNB nfet_01v8_lvt m=1 w=0.74 l=0.15 mult=1 sa=0.265
+ sb=0.265 sd=0.28 topography=normal area=0.063 perim=1.14
MMNA1 sndA1 A2 VGND VNB nfet_01v8_lvt m=1 w=0.74 l=0.15 mult=1
+ sa=0.265 sb=0.265 sd=0.28 topography=normal area=0.063 perim=1.14
MMNB0 Y B1 VGND VNB nfet_01v8_lvt m=1 w=0.74 l=0.15 mult=1 sa=0.265
+ sb=0.265 sd=0.28 topography=normal area=0.063 perim=1.14
MMNC0 Y C1 VGND VNB nfet_01v8_lvt m=1 w=0.74 l=0.15 mult=1 sa=0.265
+ sb=0.265 sd=0.28 topography=normal area=0.063 perim=1.14
MMND0 Y D1 VGND VNB nfet_01v8_lvt m=1 w=0.74 l=0.15 mult=1 sa=0.265
+ sb=0.265 sd=0.28 topography=normal area=0.063 perim=1.14
.ENDS sky130_fd_sc_hs__a2111oi_1
* Copyright 2020 The SkyWater PDK Authors
*
* Licensed under the Apache License, Version 2.0 (the "License");
* you may not use this file except in compliance with the License.
* You may obtain a copy of the License at
*
*     https://www.apache.org/licenses/LICENSE-2.0
*
* Unless required by applicable law or agreed to in writing, software
* distributed under the License is distributed on an "AS IS" BASIS,
* WITHOUT WARRANTIES OR CONDITIONS OF ANY KIND, either express or implied.
* See the License for the specific language governing permissions and
* limitations under the License.
*
* SPDX-License-Identifier: Apache-2.0

.SUBCKT sky130_fd_sc_hs__a2111oi_2 A1 A2 B1 C1 D1 VGND VNB VPB VPWR Y
*.PININFO A1:I A2:I B1:I C1:I D1:I VGND:I VNB:I VPB:I VPWR:I Y:O
MMPA0 pndA A1 VPWR VPB pfet_01v8 m=2 w=1.12 l=0.15 mult=1 sa=0.265
+ sb=0.265 sd=0.28 topography=normal area=0.063 perim=1.14
MMPA1 pndA A2 VPWR VPB pfet_01v8 m=2 w=1.12 l=0.15 mult=1 sa=0.265
+ sb=0.265 sd=0.28 topography=normal area=0.063 perim=1.14
MMPB0 pndB B1 pndA VPB pfet_01v8 m=2 w=1.12 l=0.15 mult=1 sa=0.265
+ sb=0.265 sd=0.28 topography=normal area=0.063 perim=1.14
MMPC0 pndC C1 pndB VPB pfet_01v8 m=2 w=1.12 l=0.15 mult=1 sa=0.265
+ sb=0.265 sd=0.28 topography=normal area=0.063 perim=1.14
MMPD0 Y D1 pndC VPB pfet_01v8 m=2 w=1.12 l=0.15 mult=1 sa=0.265
+ sb=0.265 sd=0.28 topography=normal area=0.063 perim=1.14
MMNA0 Y A1 sndA1 VNB nfet_01v8_lvt m=2 w=0.74 l=0.15 mult=1 sa=0.265
+ sb=0.265 sd=0.28 topography=normal area=0.063 perim=1.14
MMNA1 sndA1 A2 VGND VNB nfet_01v8_lvt m=2 w=0.74 l=0.15 mult=1
+ sa=0.265 sb=0.265 sd=0.28 topography=normal area=0.063 perim=1.14
MMNB0 Y B1 VGND VNB nfet_01v8_lvt m=1 w=0.74 l=0.15 mult=1 sa=0.265
+ sb=0.265 sd=0.28 topography=normal area=0.063 perim=1.14
MMNC0 Y C1 VGND VNB nfet_01v8_lvt m=1 w=0.74 l=0.15 mult=1 sa=0.265
+ sb=0.265 sd=0.28 topography=normal area=0.063 perim=1.14
MMND0 Y D1 VGND VNB nfet_01v8_lvt m=1 w=0.74 l=0.15 mult=1 sa=0.265
+ sb=0.265 sd=0.28 topography=normal area=0.063 perim=1.14
.ENDS sky130_fd_sc_hs__a2111oi_2
* Copyright 2020 The SkyWater PDK Authors
*
* Licensed under the Apache License, Version 2.0 (the "License");
* you may not use this file except in compliance with the License.
* You may obtain a copy of the License at
*
*     https://www.apache.org/licenses/LICENSE-2.0
*
* Unless required by applicable law or agreed to in writing, software
* distributed under the License is distributed on an "AS IS" BASIS,
* WITHOUT WARRANTIES OR CONDITIONS OF ANY KIND, either express or implied.
* See the License for the specific language governing permissions and
* limitations under the License.
*
* SPDX-License-Identifier: Apache-2.0

.SUBCKT sky130_fd_sc_hs__a2111oi_4 A1 A2 B1 C1 D1 VGND VNB VPB VPWR Y
*.PININFO A1:I A2:I B1:I C1:I D1:I VGND:I VNB:I VPB:I VPWR:I Y:O
MMPA0 pndA A1 VPWR VPB pfet_01v8 m=4 w=1.12 l=0.15 mult=1 sa=0.265
+ sb=0.265 sd=0.28 topography=normal area=0.063 perim=1.14
MMPA1 pndA A2 VPWR VPB pfet_01v8 m=4 w=1.12 l=0.15 mult=1 sa=0.265
+ sb=0.265 sd=0.28 topography=normal area=0.063 perim=1.14
MMPB0 pndB B1 pndA VPB pfet_01v8 m=4 w=1.12 l=0.15 mult=1 sa=0.265
+ sb=0.265 sd=0.28 topography=normal area=0.063 perim=1.14
MMPC0 pndC C1 pndB VPB pfet_01v8 m=4 w=1.12 l=0.15 mult=1 sa=0.265
+ sb=0.265 sd=0.28 topography=normal area=0.063 perim=1.14
MMPD0 Y D1 pndC VPB pfet_01v8 m=4 w=1.12 l=0.15 mult=1 sa=0.265
+ sb=0.265 sd=0.28 topography=normal area=0.063 perim=1.14
MMNA0 Y A1 sndA1 VNB nfet_01v8_lvt m=4 w=0.74 l=0.15 mult=1 sa=0.265
+ sb=0.265 sd=0.28 topography=normal area=0.063 perim=1.14
MMNA1 sndA1 A2 VGND VNB nfet_01v8_lvt m=4 w=0.74 l=0.15 mult=1
+ sa=0.265 sb=0.265 sd=0.28 topography=normal area=0.063 perim=1.14
MMNB0 Y B1 VGND VNB nfet_01v8_lvt m=2 w=0.74 l=0.15 mult=1 sa=0.265
+ sb=0.265 sd=0.28 topography=normal area=0.063 perim=1.14
MMNC0 Y C1 VGND VNB nfet_01v8_lvt m=2 w=0.74 l=0.15 mult=1 sa=0.265
+ sb=0.265 sd=0.28 topography=normal area=0.063 perim=1.14
MMND0 Y D1 VGND VNB nfet_01v8_lvt m=2 w=0.74 l=0.15 mult=1 sa=0.265
+ sb=0.265 sd=0.28 topography=normal area=0.063 perim=1.14
.ENDS sky130_fd_sc_hs__a2111oi_4
* Copyright 2020 The SkyWater PDK Authors
*
* Licensed under the Apache License, Version 2.0 (the "License");
* you may not use this file except in compliance with the License.
* You may obtain a copy of the License at
*
*     https://www.apache.org/licenses/LICENSE-2.0
*
* Unless required by applicable law or agreed to in writing, software
* distributed under the License is distributed on an "AS IS" BASIS,
* WITHOUT WARRANTIES OR CONDITIONS OF ANY KIND, either express or implied.
* See the License for the specific language governing permissions and
* limitations under the License.
*
* SPDX-License-Identifier: Apache-2.0

.SUBCKT sky130_fd_sc_hs__a211o_1 A1 A2 B1 C1 VGND VNB VPB VPWR X
*.PININFO A1:I A2:I B1:I C1:I VGND:I VNB:I VPB:I VPWR:I X:O
MMPA0 pndA A1 VPWR VPB pfet_01v8 m=1 w=1.0 l=0.15 mult=1 sa=0.265
+ sb=0.265 sd=0.28 topography=normal area=0.063 perim=1.14
MMPA1 pndA A2 VPWR VPB pfet_01v8 m=1 w=1.0 l=0.15 mult=1 sa=0.265
+ sb=0.265 sd=0.28 topography=normal area=0.063 perim=1.14
MMPB0 pndB B1 pndA VPB pfet_01v8 m=1 w=1.0 l=0.15 mult=1 sa=0.265
+ sb=0.265 sd=0.28 topography=normal area=0.063 perim=1.14
MMPC0 y C1 pndB VPB pfet_01v8 m=1 w=1.0 l=0.15 mult=1 sa=0.265
+ sb=0.265 sd=0.28 topography=normal area=0.063 perim=1.14
MMIPX X y VPWR VPB pfet_01v8 m=1 w=1.12 l=0.15 mult=1 sa=0.265
+ sb=0.265 sd=0.28 topography=normal area=0.063 perim=1.14
MMNA0 y A1 sndA1 VNB nfet_01v8_lvt m=1 w=0.64 l=0.15 mult=1 sa=0.265
+ sb=0.265 sd=0.28 topography=normal area=0.063 perim=1.14
MMNA1 sndA1 A2 VGND VNB nfet_01v8_lvt m=1 w=0.64 l=0.15 mult=1
+ sa=0.265 sb=0.265 sd=0.28 topography=normal area=0.063 perim=1.14
MMNB0 y B1 VGND VNB nfet_01v8_lvt m=1 w=0.64 l=0.15 mult=1 sa=0.265
+ sb=0.265 sd=0.28 topography=normal area=0.063 perim=1.14
MMNC0 y C1 VGND VNB nfet_01v8_lvt m=1 w=0.64 l=0.15 mult=1 sa=0.265
+ sb=0.265 sd=0.28 topography=normal area=0.063 perim=1.14
MMINX X y VGND VNB nfet_01v8_lvt m=1 w=0.74 l=0.15 mult=1 sa=0.265
+ sb=0.265 sd=0.28 topography=normal area=0.063 perim=1.14
.ENDS sky130_fd_sc_hs__a211o_1
* Copyright 2020 The SkyWater PDK Authors
*
* Licensed under the Apache License, Version 2.0 (the "License");
* you may not use this file except in compliance with the License.
* You may obtain a copy of the License at
*
*     https://www.apache.org/licenses/LICENSE-2.0
*
* Unless required by applicable law or agreed to in writing, software
* distributed under the License is distributed on an "AS IS" BASIS,
* WITHOUT WARRANTIES OR CONDITIONS OF ANY KIND, either express or implied.
* See the License for the specific language governing permissions and
* limitations under the License.
*
* SPDX-License-Identifier: Apache-2.0

.SUBCKT sky130_fd_sc_hs__a211o_2 A1 A2 B1 C1 VGND VNB VPB VPWR X
*.PININFO A1:I A2:I B1:I C1:I VGND:I VNB:I VPB:I VPWR:I X:O
MMPA0 pndA A1 VPWR VPB pfet_01v8 m=1 w=1.0 l=0.15 mult=1 sa=0.265
+ sb=0.265 sd=0.28 topography=normal area=0.063 perim=1.14
MMPA1 pndA A2 VPWR VPB pfet_01v8 m=1 w=1.0 l=0.15 mult=1 sa=0.265
+ sb=0.265 sd=0.28 topography=normal area=0.063 perim=1.14
MMPB0 pndB B1 pndA VPB pfet_01v8 m=1 w=1.0 l=0.15 mult=1 sa=0.265
+ sb=0.265 sd=0.28 topography=normal area=0.063 perim=1.14
MMPC0 y C1 pndB VPB pfet_01v8 m=1 w=1.0 l=0.15 mult=1 sa=0.265
+ sb=0.265 sd=0.28 topography=normal area=0.063 perim=1.14
MMIPX X y VPWR VPB pfet_01v8 m=2 w=1.12 l=0.15 mult=1 sa=0.265
+ sb=0.265 sd=0.28 topography=normal area=0.063 perim=1.14
MMNA0 y A1 sndA1 VNB nfet_01v8_lvt m=1 w=0.74 l=0.15 mult=1 sa=0.265
+ sb=0.265 sd=0.28 topography=normal area=0.063 perim=1.14
MMNA1 sndA1 A2 VGND VNB nfet_01v8_lvt m=1 w=0.74 l=0.15 mult=1
+ sa=0.265 sb=0.265 sd=0.28 topography=normal area=0.063 perim=1.14
MMNB0 y B1 VGND VNB nfet_01v8_lvt m=1 w=0.74 l=0.15 mult=1 sa=0.265
+ sb=0.265 sd=0.28 topography=normal area=0.063 perim=1.14
MMNC0 y C1 VGND VNB nfet_01v8_lvt m=1 w=0.74 l=0.15 mult=1 sa=0.265
+ sb=0.265 sd=0.28 topography=normal area=0.063 perim=1.14
MMINX X y VGND VNB nfet_01v8_lvt m=2 w=0.74 l=0.15 mult=1 sa=0.265
+ sb=0.265 sd=0.28 topography=normal area=0.063 perim=1.14
.ENDS sky130_fd_sc_hs__a211o_2
* Copyright 2020 The SkyWater PDK Authors
*
* Licensed under the Apache License, Version 2.0 (the "License");
* you may not use this file except in compliance with the License.
* You may obtain a copy of the License at
*
*     https://www.apache.org/licenses/LICENSE-2.0
*
* Unless required by applicable law or agreed to in writing, software
* distributed under the License is distributed on an "AS IS" BASIS,
* WITHOUT WARRANTIES OR CONDITIONS OF ANY KIND, either express or implied.
* See the License for the specific language governing permissions and
* limitations under the License.
*
* SPDX-License-Identifier: Apache-2.0

.SUBCKT sky130_fd_sc_hs__a211o_4 A1 A2 B1 C1 VGND VNB VPB VPWR X
*.PININFO A1:I A2:I B1:I C1:I VGND:I VNB:I VPB:I VPWR:I X:O
MMPA0 pndA A1 VPWR VPB pfet_01v8 m=2 w=1.0 l=0.15 mult=1 sa=0.265
+ sb=0.265 sd=0.28 topography=normal area=0.063 perim=1.14
MMPA1 pndA A2 VPWR VPB pfet_01v8 m=2 w=1.0 l=0.15 mult=1 sa=0.265
+ sb=0.265 sd=0.28 topography=normal area=0.063 perim=1.14
MMPB0 pndB B1 pndA VPB pfet_01v8 m=2 w=1.0 l=0.15 mult=1 sa=0.265
+ sb=0.265 sd=0.28 topography=normal area=0.063 perim=1.14
MMPC0 y C1 pndB VPB pfet_01v8 m=2 w=1.0 l=0.15 mult=1 sa=0.265
+ sb=0.265 sd=0.28 topography=normal area=0.063 perim=1.14
MMIPX X y VPWR VPB pfet_01v8 m=4 w=1.12 l=0.15 mult=1 sa=0.265
+ sb=0.265 sd=0.28 topography=normal area=0.063 perim=1.14
MMNA0 y A1 sndA1 VNB nfet_01v8_lvt m=2 w=0.64 l=0.15 mult=1 sa=0.265
+ sb=0.265 sd=0.28 topography=normal area=0.063 perim=1.14
MMNA1 sndA1 A2 VGND VNB nfet_01v8_lvt m=2 w=0.64 l=0.15 mult=1
+ sa=0.265 sb=0.265 sd=0.28 topography=normal area=0.063 perim=1.14
MMNB0 y B1 VGND VNB nfet_01v8_lvt m=2 w=0.64 l=0.15 mult=1 sa=0.265
+ sb=0.265 sd=0.28 topography=normal area=0.063 perim=1.14
MMNC0 y C1 VGND VNB nfet_01v8_lvt m=2 w=0.64 l=0.15 mult=1 sa=0.265
+ sb=0.265 sd=0.28 topography=normal area=0.063 perim=1.14
MMINX X y VGND VNB nfet_01v8_lvt m=4 w=0.74 l=0.15 mult=1 sa=0.265
+ sb=0.265 sd=0.28 topography=normal area=0.063 perim=1.14
.ENDS sky130_fd_sc_hs__a211o_4
* Copyright 2020 The SkyWater PDK Authors
*
* Licensed under the Apache License, Version 2.0 (the "License");
* you may not use this file except in compliance with the License.
* You may obtain a copy of the License at
*
*     https://www.apache.org/licenses/LICENSE-2.0
*
* Unless required by applicable law or agreed to in writing, software
* distributed under the License is distributed on an "AS IS" BASIS,
* WITHOUT WARRANTIES OR CONDITIONS OF ANY KIND, either express or implied.
* See the License for the specific language governing permissions and
* limitations under the License.
*
* SPDX-License-Identifier: Apache-2.0

.SUBCKT sky130_fd_sc_hs__a211oi_1 A1 A2 B1 C1 VGND VNB VPB VPWR Y
*.PININFO A1:I A2:I B1:I C1:I VGND:I VNB:I VPB:I VPWR:I Y:O
MMPA0 pndA A1 VPWR VPB pfet_01v8 m=1 w=1.12 l=0.15 mult=1 sa=0.265
+ sb=0.265 sd=0.28 topography=normal area=0.063 perim=1.14
MMPA1 pndA A2 VPWR VPB pfet_01v8 m=1 w=1.12 l=0.15 mult=1 sa=0.265
+ sb=0.265 sd=0.28 topography=normal area=0.063 perim=1.14
MMPB0 pndB B1 pndA VPB pfet_01v8 m=1 w=1.12 l=0.15 mult=1 sa=0.265
+ sb=0.265 sd=0.28 topography=normal area=0.063 perim=1.14
MMPC0 Y C1 pndB VPB pfet_01v8 m=1 w=1.12 l=0.15 mult=1 sa=0.265
+ sb=0.265 sd=0.28 topography=normal area=0.063 perim=1.14
MMNA0 Y A1 sndA1 VNB nfet_01v8_lvt m=1 w=0.74 l=0.15 mult=1 sa=0.265
+ sb=0.265 sd=0.28 topography=normal area=0.063 perim=1.14
MMNA1 sndA1 A2 VGND VNB nfet_01v8_lvt m=1 w=0.74 l=0.15 mult=1
+ sa=0.265 sb=0.265 sd=0.28 topography=normal area=0.063 perim=1.14
MMNB0 Y B1 VGND VNB nfet_01v8_lvt m=1 w=0.74 l=0.15 mult=1 sa=0.265
+ sb=0.265 sd=0.28 topography=normal area=0.063 perim=1.14
MMNC0 Y C1 VGND VNB nfet_01v8_lvt m=1 w=0.74 l=0.15 mult=1 sa=0.265
+ sb=0.265 sd=0.28 topography=normal area=0.063 perim=1.14
.ENDS sky130_fd_sc_hs__a211oi_1
* Copyright 2020 The SkyWater PDK Authors
*
* Licensed under the Apache License, Version 2.0 (the "License");
* you may not use this file except in compliance with the License.
* You may obtain a copy of the License at
*
*     https://www.apache.org/licenses/LICENSE-2.0
*
* Unless required by applicable law or agreed to in writing, software
* distributed under the License is distributed on an "AS IS" BASIS,
* WITHOUT WARRANTIES OR CONDITIONS OF ANY KIND, either express or implied.
* See the License for the specific language governing permissions and
* limitations under the License.
*
* SPDX-License-Identifier: Apache-2.0

.SUBCKT sky130_fd_sc_hs__a211oi_2 A1 A2 B1 C1 VGND VNB VPB VPWR Y
*.PININFO A1:I A2:I B1:I C1:I VGND:I VNB:I VPB:I VPWR:I Y:O
MMPA0 pndA A1 VPWR VPB pfet_01v8 m=2 w=1.12 l=0.15 mult=1 sa=0.265
+ sb=0.265 sd=0.28 topography=normal area=0.063 perim=1.14
MMPA1 pndA A2 VPWR VPB pfet_01v8 m=2 w=1.12 l=0.15 mult=1 sa=0.265
+ sb=0.265 sd=0.28 topography=normal area=0.063 perim=1.14
MMPB0 pndB B1 pndA VPB pfet_01v8 m=2 w=1.12 l=0.15 mult=1 sa=0.265
+ sb=0.265 sd=0.28 topography=normal area=0.063 perim=1.14
MMPC0 Y C1 pndB VPB pfet_01v8 m=2 w=1.12 l=0.15 mult=1 sa=0.265
+ sb=0.265 sd=0.28 topography=normal area=0.063 perim=1.14
MMNA0 Y A1 sndA1 VNB nfet_01v8_lvt m=2 w=0.74 l=0.15 mult=1 sa=0.265
+ sb=0.265 sd=0.28 topography=normal area=0.063 perim=1.14
MMNA1 sndA1 A2 VGND VNB nfet_01v8_lvt m=2 w=0.74 l=0.15 mult=1
+ sa=0.265 sb=0.265 sd=0.28 topography=normal area=0.063 perim=1.14
MMNB0 Y B1 VGND VNB nfet_01v8_lvt m=1 w=0.74 l=0.15 mult=1 sa=0.265
+ sb=0.265 sd=0.28 topography=normal area=0.063 perim=1.14
MMNC0 Y C1 VGND VNB nfet_01v8_lvt m=1 w=0.74 l=0.15 mult=1 sa=0.265
+ sb=0.265 sd=0.28 topography=normal area=0.063 perim=1.14
.ENDS sky130_fd_sc_hs__a211oi_2
* Copyright 2020 The SkyWater PDK Authors
*
* Licensed under the Apache License, Version 2.0 (the "License");
* you may not use this file except in compliance with the License.
* You may obtain a copy of the License at
*
*     https://www.apache.org/licenses/LICENSE-2.0
*
* Unless required by applicable law or agreed to in writing, software
* distributed under the License is distributed on an "AS IS" BASIS,
* WITHOUT WARRANTIES OR CONDITIONS OF ANY KIND, either express or implied.
* See the License for the specific language governing permissions and
* limitations under the License.
*
* SPDX-License-Identifier: Apache-2.0

.SUBCKT sky130_fd_sc_hs__a211oi_4 A1 A2 B1 C1 VGND VNB VPB VPWR Y
*.PININFO A1:I A2:I B1:I C1:I VGND:I VNB:I VPB:I VPWR:I Y:O
MMPA0 pndA A1 VPWR VPB pfet_01v8 m=4 w=1.12 l=0.15 mult=1 sa=0.265
+ sb=0.265 sd=0.28 topography=normal area=0.063 perim=1.14
MMPA1 pndA A2 VPWR VPB pfet_01v8 m=4 w=1.12 l=0.15 mult=1 sa=0.265
+ sb=0.265 sd=0.28 topography=normal area=0.063 perim=1.14
MMPB0 pndB B1 pndA VPB pfet_01v8 m=4 w=1.12 l=0.15 mult=1 sa=0.265
+ sb=0.265 sd=0.28 topography=normal area=0.063 perim=1.14
MMPC0 Y C1 pndB VPB pfet_01v8 m=4 w=1.12 l=0.15 mult=1 sa=0.265
+ sb=0.265 sd=0.28 topography=normal area=0.063 perim=1.14
MMNA0 Y A1 sndA1 VNB nfet_01v8_lvt m=4 w=0.74 l=0.15 mult=1 sa=0.265
+ sb=0.265 sd=0.28 topography=normal area=0.063 perim=1.14
MMNA1 sndA1 A2 VGND VNB nfet_01v8_lvt m=4 w=0.74 l=0.15 mult=1
+ sa=0.265 sb=0.265 sd=0.28 topography=normal area=0.063 perim=1.14
MMNB0 Y B1 VGND VNB nfet_01v8_lvt m=2 w=0.74 l=0.15 mult=1 sa=0.265
+ sb=0.265 sd=0.28 topography=normal area=0.063 perim=1.14
MMNC0 Y C1 VGND VNB nfet_01v8_lvt m=2 w=0.74 l=0.15 mult=1 sa=0.265
+ sb=0.265 sd=0.28 topography=normal area=0.063 perim=1.14
.ENDS sky130_fd_sc_hs__a211oi_4
* Copyright 2020 The SkyWater PDK Authors
*
* Licensed under the Apache License, Version 2.0 (the "License");
* you may not use this file except in compliance with the License.
* You may obtain a copy of the License at
*
*     https://www.apache.org/licenses/LICENSE-2.0
*
* Unless required by applicable law or agreed to in writing, software
* distributed under the License is distributed on an "AS IS" BASIS,
* WITHOUT WARRANTIES OR CONDITIONS OF ANY KIND, either express or implied.
* See the License for the specific language governing permissions and
* limitations under the License.
*
* SPDX-License-Identifier: Apache-2.0

.SUBCKT sky130_fd_sc_hs__a21bo_1 A1 A2 B1_N VGND VNB VPB VPWR X
*.PININFO A1:I A2:I B1_N:I VGND:I VNB:I VPB:I VPWR:I X:O
MMPA0 pndA A1 VPWR VPB pfet_01v8 m=1 w=1.0 l=0.15 mult=1 sa=0.265
+ sb=0.265 sd=0.28 topography=normal area=0.063 perim=1.14
MMPA1 pndA A2 VPWR VPB pfet_01v8 m=1 w=1.0 l=0.15 mult=1 sa=0.265
+ sb=0.265 sd=0.28 topography=normal area=0.063 perim=1.14
MMPB0 y B1 pndA VPB pfet_01v8 m=1 w=1.0 l=0.15 mult=1 sa=0.265
+ sb=0.265 sd=0.28 topography=normal area=0.063 perim=1.14
MMIPB1N B1 B1_N VPWR VPB pfet_01v8 m=1 w=0.84 l=0.15 mult=1 sa=0.265
+ sb=0.265 sd=0.28 topography=normal area=0.063 perim=1.14
MMIPX X y VPWR VPB pfet_01v8 m=1 w=1.12 l=0.15 mult=1 sa=0.265
+ sb=0.265 sd=0.28 topography=normal area=0.063 perim=1.14
MMNA0 y A1 sndA1 VNB nfet_01v8_lvt m=1 w=0.64 l=0.15 mult=1 sa=0.265
+ sb=0.265 sd=0.28 topography=normal area=0.063 perim=1.14
MMNA1 sndA1 A2 VGND VNB nfet_01v8_lvt m=1 w=0.64 l=0.15 mult=1
+ sa=0.265 sb=0.265 sd=0.28 topography=normal area=0.063 perim=1.14
MMNB0 y B1 VGND VNB nfet_01v8_lvt m=1 w=0.64 l=0.15 mult=1 sa=0.265
+ sb=0.265 sd=0.28 topography=normal area=0.063 perim=1.14
MMINB1N B1 B1_N VGND VNB nfet_01v8_lvt m=1 w=0.55 l=0.15 mult=1
+ sa=0.265 sb=0.265 sd=0.28 topography=normal area=0.063 perim=1.14
MMINX X y VGND VNB nfet_01v8_lvt m=1 w=0.74 l=0.15 mult=1 sa=0.265
+ sb=0.265 sd=0.28 topography=normal area=0.063 perim=1.14
.ENDS sky130_fd_sc_hs__a21bo_1
* Copyright 2020 The SkyWater PDK Authors
*
* Licensed under the Apache License, Version 2.0 (the "License");
* you may not use this file except in compliance with the License.
* You may obtain a copy of the License at
*
*     https://www.apache.org/licenses/LICENSE-2.0
*
* Unless required by applicable law or agreed to in writing, software
* distributed under the License is distributed on an "AS IS" BASIS,
* WITHOUT WARRANTIES OR CONDITIONS OF ANY KIND, either express or implied.
* See the License for the specific language governing permissions and
* limitations under the License.
*
* SPDX-License-Identifier: Apache-2.0

.SUBCKT sky130_fd_sc_hs__a21bo_2 A1 A2 B1_N VGND VNB VPB VPWR X
*.PININFO A1:I A2:I B1_N:I VGND:I VNB:I VPB:I VPWR:I X:O
MMPA0 pndA A1 VPWR VPB pfet_01v8 m=1 w=1.0 l=0.15 mult=1 sa=0.265
+ sb=0.265 sd=0.28 topography=normal area=0.063 perim=1.14
MMPA1 pndA A2 VPWR VPB pfet_01v8 m=1 w=1.0 l=0.15 mult=1 sa=0.265
+ sb=0.265 sd=0.28 topography=normal area=0.063 perim=1.14
MMPB0 y B1 pndA VPB pfet_01v8 m=1 w=1.0 l=0.15 mult=1 sa=0.265
+ sb=0.265 sd=0.28 topography=normal area=0.063 perim=1.14
MMIPB1N B1 B1_N VPWR VPB pfet_01v8 m=1 w=0.84 l=0.15 mult=1 sa=0.265
+ sb=0.265 sd=0.28 topography=normal area=0.063 perim=1.14
MMIPX X y VPWR VPB pfet_01v8 m=2 w=1.12 l=0.15 mult=1 sa=0.265
+ sb=0.265 sd=0.28 topography=normal area=0.063 perim=1.14
MMNA0 y A1 sndA1 VNB nfet_01v8_lvt m=1 w=0.74 l=0.15 mult=1 sa=0.265
+ sb=0.265 sd=0.28 topography=normal area=0.063 perim=1.14
MMNA1 sndA1 A2 VGND VNB nfet_01v8_lvt m=1 w=0.74 l=0.15 mult=1
+ sa=0.265 sb=0.265 sd=0.28 topography=normal area=0.063 perim=1.14
MMNB0 y B1 VGND VNB nfet_01v8_lvt m=1 w=0.74 l=0.15 mult=1 sa=0.265
+ sb=0.265 sd=0.28 topography=normal area=0.063 perim=1.14
MMINB1N B1 B1_N VGND VNB nfet_01v8_lvt m=1 w=0.55 l=0.15 mult=1
+ sa=0.265 sb=0.265 sd=0.28 topography=normal area=0.063 perim=1.14
MMINX X y VGND VNB nfet_01v8_lvt m=2 w=0.74 l=0.15 mult=1 sa=0.265
+ sb=0.265 sd=0.28 topography=normal area=0.063 perim=1.14
.ENDS sky130_fd_sc_hs__a21bo_2
* Copyright 2020 The SkyWater PDK Authors
*
* Licensed under the Apache License, Version 2.0 (the "License");
* you may not use this file except in compliance with the License.
* You may obtain a copy of the License at
*
*     https://www.apache.org/licenses/LICENSE-2.0
*
* Unless required by applicable law or agreed to in writing, software
* distributed under the License is distributed on an "AS IS" BASIS,
* WITHOUT WARRANTIES OR CONDITIONS OF ANY KIND, either express or implied.
* See the License for the specific language governing permissions and
* limitations under the License.
*
* SPDX-License-Identifier: Apache-2.0

.SUBCKT sky130_fd_sc_hs__a21bo_4 A1 A2 B1_N VGND VNB VPB VPWR X
*.PININFO A1:I A2:I B1_N:I VGND:I VNB:I VPB:I VPWR:I X:O
MMPA0 pndA A1 VPWR VPB pfet_01v8 m=2 w=1.0 l=0.15 mult=1 sa=0.265
+ sb=0.265 sd=0.28 topography=normal area=0.063 perim=1.14
MMPA1 pndA A2 VPWR VPB pfet_01v8 m=2 w=1.0 l=0.15 mult=1 sa=0.265
+ sb=0.265 sd=0.28 topography=normal area=0.063 perim=1.14
MMPB0 y B1 pndA VPB pfet_01v8 m=2 w=1.0 l=0.15 mult=1 sa=0.265
+ sb=0.265 sd=0.28 topography=normal area=0.063 perim=1.14
MMIPB1N B1 B1_N VPWR VPB pfet_01v8 m=1 w=1.0 l=0.15 mult=1 sa=0.265