* NGSPICE file created from diff_pair_sample_0061.ext - technology: sky130A

.subckt diff_pair_sample_0061 VTAIL VN VP B VDD2 VDD1
X0 B.t11 B.t9 B.t10 w_n1302_n4916# sky130_fd_pr__pfet_01v8 ad=7.6908 pd=40.22 as=0 ps=0 w=19.72 l=0.5
X1 VDD1.t1 VP.t0 VTAIL.t2 w_n1302_n4916# sky130_fd_pr__pfet_01v8 ad=7.6908 pd=40.22 as=7.6908 ps=40.22 w=19.72 l=0.5
X2 B.t8 B.t6 B.t7 w_n1302_n4916# sky130_fd_pr__pfet_01v8 ad=7.6908 pd=40.22 as=0 ps=0 w=19.72 l=0.5
X3 VDD1.t0 VP.t1 VTAIL.t3 w_n1302_n4916# sky130_fd_pr__pfet_01v8 ad=7.6908 pd=40.22 as=7.6908 ps=40.22 w=19.72 l=0.5
X4 B.t5 B.t3 B.t4 w_n1302_n4916# sky130_fd_pr__pfet_01v8 ad=7.6908 pd=40.22 as=0 ps=0 w=19.72 l=0.5
X5 VDD2.t1 VN.t0 VTAIL.t0 w_n1302_n4916# sky130_fd_pr__pfet_01v8 ad=7.6908 pd=40.22 as=7.6908 ps=40.22 w=19.72 l=0.5
X6 B.t2 B.t0 B.t1 w_n1302_n4916# sky130_fd_pr__pfet_01v8 ad=7.6908 pd=40.22 as=0 ps=0 w=19.72 l=0.5
X7 VDD2.t0 VN.t1 VTAIL.t1 w_n1302_n4916# sky130_fd_pr__pfet_01v8 ad=7.6908 pd=40.22 as=7.6908 ps=40.22 w=19.72 l=0.5
R0 B.n129 B.t6 1156.91
R1 B.n135 B.t0 1156.91
R2 B.n42 B.t9 1156.91
R3 B.n49 B.t3 1156.91
R4 B.n443 B.n82 585
R5 B.n445 B.n444 585
R6 B.n446 B.n81 585
R7 B.n448 B.n447 585
R8 B.n449 B.n80 585
R9 B.n451 B.n450 585
R10 B.n452 B.n79 585
R11 B.n454 B.n453 585
R12 B.n455 B.n78 585
R13 B.n457 B.n456 585
R14 B.n458 B.n77 585
R15 B.n460 B.n459 585
R16 B.n461 B.n76 585
R17 B.n463 B.n462 585
R18 B.n464 B.n75 585
R19 B.n466 B.n465 585
R20 B.n467 B.n74 585
R21 B.n469 B.n468 585
R22 B.n470 B.n73 585
R23 B.n472 B.n471 585
R24 B.n473 B.n72 585
R25 B.n475 B.n474 585
R26 B.n476 B.n71 585
R27 B.n478 B.n477 585
R28 B.n479 B.n70 585
R29 B.n481 B.n480 585
R30 B.n482 B.n69 585
R31 B.n484 B.n483 585
R32 B.n485 B.n68 585
R33 B.n487 B.n486 585
R34 B.n488 B.n67 585
R35 B.n490 B.n489 585
R36 B.n491 B.n66 585
R37 B.n493 B.n492 585
R38 B.n494 B.n65 585
R39 B.n496 B.n495 585
R40 B.n497 B.n64 585
R41 B.n499 B.n498 585
R42 B.n500 B.n63 585
R43 B.n502 B.n501 585
R44 B.n503 B.n62 585
R45 B.n505 B.n504 585
R46 B.n506 B.n61 585
R47 B.n508 B.n507 585
R48 B.n509 B.n60 585
R49 B.n511 B.n510 585
R50 B.n512 B.n59 585
R51 B.n514 B.n513 585
R52 B.n515 B.n58 585
R53 B.n517 B.n516 585
R54 B.n518 B.n57 585
R55 B.n520 B.n519 585
R56 B.n521 B.n56 585
R57 B.n523 B.n522 585
R58 B.n524 B.n55 585
R59 B.n526 B.n525 585
R60 B.n527 B.n54 585
R61 B.n529 B.n528 585
R62 B.n530 B.n53 585
R63 B.n532 B.n531 585
R64 B.n533 B.n52 585
R65 B.n535 B.n534 585
R66 B.n536 B.n51 585
R67 B.n538 B.n537 585
R68 B.n540 B.n48 585
R69 B.n542 B.n541 585
R70 B.n543 B.n47 585
R71 B.n545 B.n544 585
R72 B.n546 B.n46 585
R73 B.n548 B.n547 585
R74 B.n549 B.n45 585
R75 B.n551 B.n550 585
R76 B.n552 B.n41 585
R77 B.n554 B.n553 585
R78 B.n555 B.n40 585
R79 B.n557 B.n556 585
R80 B.n558 B.n39 585
R81 B.n560 B.n559 585
R82 B.n561 B.n38 585
R83 B.n563 B.n562 585
R84 B.n564 B.n37 585
R85 B.n566 B.n565 585
R86 B.n567 B.n36 585
R87 B.n569 B.n568 585
R88 B.n570 B.n35 585
R89 B.n572 B.n571 585
R90 B.n573 B.n34 585
R91 B.n575 B.n574 585
R92 B.n576 B.n33 585
R93 B.n578 B.n577 585
R94 B.n579 B.n32 585
R95 B.n581 B.n580 585
R96 B.n582 B.n31 585
R97 B.n584 B.n583 585
R98 B.n585 B.n30 585
R99 B.n587 B.n586 585
R100 B.n588 B.n29 585
R101 B.n590 B.n589 585
R102 B.n591 B.n28 585
R103 B.n593 B.n592 585
R104 B.n594 B.n27 585
R105 B.n596 B.n595 585
R106 B.n597 B.n26 585
R107 B.n599 B.n598 585
R108 B.n600 B.n25 585
R109 B.n602 B.n601 585
R110 B.n603 B.n24 585
R111 B.n605 B.n604 585
R112 B.n606 B.n23 585
R113 B.n608 B.n607 585
R114 B.n609 B.n22 585
R115 B.n611 B.n610 585
R116 B.n612 B.n21 585
R117 B.n614 B.n613 585
R118 B.n615 B.n20 585
R119 B.n617 B.n616 585
R120 B.n618 B.n19 585
R121 B.n620 B.n619 585
R122 B.n621 B.n18 585
R123 B.n623 B.n622 585
R124 B.n624 B.n17 585
R125 B.n626 B.n625 585
R126 B.n627 B.n16 585
R127 B.n629 B.n628 585
R128 B.n630 B.n15 585
R129 B.n632 B.n631 585
R130 B.n633 B.n14 585
R131 B.n635 B.n634 585
R132 B.n636 B.n13 585
R133 B.n638 B.n637 585
R134 B.n639 B.n12 585
R135 B.n641 B.n640 585
R136 B.n642 B.n11 585
R137 B.n644 B.n643 585
R138 B.n645 B.n10 585
R139 B.n647 B.n646 585
R140 B.n648 B.n9 585
R141 B.n650 B.n649 585
R142 B.n442 B.n441 585
R143 B.n440 B.n83 585
R144 B.n439 B.n438 585
R145 B.n437 B.n84 585
R146 B.n436 B.n435 585
R147 B.n434 B.n85 585
R148 B.n433 B.n432 585
R149 B.n431 B.n86 585
R150 B.n430 B.n429 585
R151 B.n428 B.n87 585
R152 B.n427 B.n426 585
R153 B.n425 B.n88 585
R154 B.n424 B.n423 585
R155 B.n422 B.n89 585
R156 B.n421 B.n420 585
R157 B.n419 B.n90 585
R158 B.n418 B.n417 585
R159 B.n416 B.n91 585
R160 B.n415 B.n414 585
R161 B.n413 B.n92 585
R162 B.n412 B.n411 585
R163 B.n410 B.n93 585
R164 B.n409 B.n408 585
R165 B.n407 B.n94 585
R166 B.n406 B.n405 585
R167 B.n404 B.n95 585
R168 B.n403 B.n402 585
R169 B.n194 B.n169 585
R170 B.n196 B.n195 585
R171 B.n197 B.n168 585
R172 B.n199 B.n198 585
R173 B.n200 B.n167 585
R174 B.n202 B.n201 585
R175 B.n203 B.n166 585
R176 B.n205 B.n204 585
R177 B.n206 B.n165 585
R178 B.n208 B.n207 585
R179 B.n209 B.n164 585
R180 B.n211 B.n210 585
R181 B.n212 B.n163 585
R182 B.n214 B.n213 585
R183 B.n215 B.n162 585
R184 B.n217 B.n216 585
R185 B.n218 B.n161 585
R186 B.n220 B.n219 585
R187 B.n221 B.n160 585
R188 B.n223 B.n222 585
R189 B.n224 B.n159 585
R190 B.n226 B.n225 585
R191 B.n227 B.n158 585
R192 B.n229 B.n228 585
R193 B.n230 B.n157 585
R194 B.n232 B.n231 585
R195 B.n233 B.n156 585
R196 B.n235 B.n234 585
R197 B.n236 B.n155 585
R198 B.n238 B.n237 585
R199 B.n239 B.n154 585
R200 B.n241 B.n240 585
R201 B.n242 B.n153 585
R202 B.n244 B.n243 585
R203 B.n245 B.n152 585
R204 B.n247 B.n246 585
R205 B.n248 B.n151 585
R206 B.n250 B.n249 585
R207 B.n251 B.n150 585
R208 B.n253 B.n252 585
R209 B.n254 B.n149 585
R210 B.n256 B.n255 585
R211 B.n257 B.n148 585
R212 B.n259 B.n258 585
R213 B.n260 B.n147 585
R214 B.n262 B.n261 585
R215 B.n263 B.n146 585
R216 B.n265 B.n264 585
R217 B.n266 B.n145 585
R218 B.n268 B.n267 585
R219 B.n269 B.n144 585
R220 B.n271 B.n270 585
R221 B.n272 B.n143 585
R222 B.n274 B.n273 585
R223 B.n275 B.n142 585
R224 B.n277 B.n276 585
R225 B.n278 B.n141 585
R226 B.n280 B.n279 585
R227 B.n281 B.n140 585
R228 B.n283 B.n282 585
R229 B.n284 B.n139 585
R230 B.n286 B.n285 585
R231 B.n287 B.n138 585
R232 B.n289 B.n288 585
R233 B.n291 B.n290 585
R234 B.n292 B.n134 585
R235 B.n294 B.n293 585
R236 B.n295 B.n133 585
R237 B.n297 B.n296 585
R238 B.n298 B.n132 585
R239 B.n300 B.n299 585
R240 B.n301 B.n131 585
R241 B.n303 B.n302 585
R242 B.n304 B.n128 585
R243 B.n307 B.n306 585
R244 B.n308 B.n127 585
R245 B.n310 B.n309 585
R246 B.n311 B.n126 585
R247 B.n313 B.n312 585
R248 B.n314 B.n125 585
R249 B.n316 B.n315 585
R250 B.n317 B.n124 585
R251 B.n319 B.n318 585
R252 B.n320 B.n123 585
R253 B.n322 B.n321 585
R254 B.n323 B.n122 585
R255 B.n325 B.n324 585
R256 B.n326 B.n121 585
R257 B.n328 B.n327 585
R258 B.n329 B.n120 585
R259 B.n331 B.n330 585
R260 B.n332 B.n119 585
R261 B.n334 B.n333 585
R262 B.n335 B.n118 585
R263 B.n337 B.n336 585
R264 B.n338 B.n117 585
R265 B.n340 B.n339 585
R266 B.n341 B.n116 585
R267 B.n343 B.n342 585
R268 B.n344 B.n115 585
R269 B.n346 B.n345 585
R270 B.n347 B.n114 585
R271 B.n349 B.n348 585
R272 B.n350 B.n113 585
R273 B.n352 B.n351 585
R274 B.n353 B.n112 585
R275 B.n355 B.n354 585
R276 B.n356 B.n111 585
R277 B.n358 B.n357 585
R278 B.n359 B.n110 585
R279 B.n361 B.n360 585
R280 B.n362 B.n109 585
R281 B.n364 B.n363 585
R282 B.n365 B.n108 585
R283 B.n367 B.n366 585
R284 B.n368 B.n107 585
R285 B.n370 B.n369 585
R286 B.n371 B.n106 585
R287 B.n373 B.n372 585
R288 B.n374 B.n105 585
R289 B.n376 B.n375 585
R290 B.n377 B.n104 585
R291 B.n379 B.n378 585
R292 B.n380 B.n103 585
R293 B.n382 B.n381 585
R294 B.n383 B.n102 585
R295 B.n385 B.n384 585
R296 B.n386 B.n101 585
R297 B.n388 B.n387 585
R298 B.n389 B.n100 585
R299 B.n391 B.n390 585
R300 B.n392 B.n99 585
R301 B.n394 B.n393 585
R302 B.n395 B.n98 585
R303 B.n397 B.n396 585
R304 B.n398 B.n97 585
R305 B.n400 B.n399 585
R306 B.n401 B.n96 585
R307 B.n193 B.n192 585
R308 B.n191 B.n170 585
R309 B.n190 B.n189 585
R310 B.n188 B.n171 585
R311 B.n187 B.n186 585
R312 B.n185 B.n172 585
R313 B.n184 B.n183 585
R314 B.n182 B.n173 585
R315 B.n181 B.n180 585
R316 B.n179 B.n174 585
R317 B.n178 B.n177 585
R318 B.n176 B.n175 585
R319 B.n2 B.n0 585
R320 B.n669 B.n1 585
R321 B.n668 B.n667 585
R322 B.n666 B.n3 585
R323 B.n665 B.n664 585
R324 B.n663 B.n4 585
R325 B.n662 B.n661 585
R326 B.n660 B.n5 585
R327 B.n659 B.n658 585
R328 B.n657 B.n6 585
R329 B.n656 B.n655 585
R330 B.n654 B.n7 585
R331 B.n653 B.n652 585
R332 B.n651 B.n8 585
R333 B.n671 B.n670 585
R334 B.n129 B.t8 531.01
R335 B.n49 B.t4 531.01
R336 B.n135 B.t2 531.01
R337 B.n42 B.t10 531.01
R338 B.n194 B.n193 526.135
R339 B.n651 B.n650 526.135
R340 B.n403 B.n96 526.135
R341 B.n441 B.n82 526.135
R342 B.n130 B.t7 514.913
R343 B.n50 B.t5 514.913
R344 B.n136 B.t1 514.913
R345 B.n43 B.t11 514.913
R346 B.n193 B.n170 163.367
R347 B.n189 B.n170 163.367
R348 B.n189 B.n188 163.367
R349 B.n188 B.n187 163.367
R350 B.n187 B.n172 163.367
R351 B.n183 B.n172 163.367
R352 B.n183 B.n182 163.367
R353 B.n182 B.n181 163.367
R354 B.n181 B.n174 163.367
R355 B.n177 B.n174 163.367
R356 B.n177 B.n176 163.367
R357 B.n176 B.n2 163.367
R358 B.n670 B.n2 163.367
R359 B.n670 B.n669 163.367
R360 B.n669 B.n668 163.367
R361 B.n668 B.n3 163.367
R362 B.n664 B.n3 163.367
R363 B.n664 B.n663 163.367
R364 B.n663 B.n662 163.367
R365 B.n662 B.n5 163.367
R366 B.n658 B.n5 163.367
R367 B.n658 B.n657 163.367
R368 B.n657 B.n656 163.367
R369 B.n656 B.n7 163.367
R370 B.n652 B.n7 163.367
R371 B.n652 B.n651 163.367
R372 B.n195 B.n194 163.367
R373 B.n195 B.n168 163.367
R374 B.n199 B.n168 163.367
R375 B.n200 B.n199 163.367
R376 B.n201 B.n200 163.367
R377 B.n201 B.n166 163.367
R378 B.n205 B.n166 163.367
R379 B.n206 B.n205 163.367
R380 B.n207 B.n206 163.367
R381 B.n207 B.n164 163.367
R382 B.n211 B.n164 163.367
R383 B.n212 B.n211 163.367
R384 B.n213 B.n212 163.367
R385 B.n213 B.n162 163.367
R386 B.n217 B.n162 163.367
R387 B.n218 B.n217 163.367
R388 B.n219 B.n218 163.367
R389 B.n219 B.n160 163.367
R390 B.n223 B.n160 163.367
R391 B.n224 B.n223 163.367
R392 B.n225 B.n224 163.367
R393 B.n225 B.n158 163.367
R394 B.n229 B.n158 163.367
R395 B.n230 B.n229 163.367
R396 B.n231 B.n230 163.367
R397 B.n231 B.n156 163.367
R398 B.n235 B.n156 163.367
R399 B.n236 B.n235 163.367
R400 B.n237 B.n236 163.367
R401 B.n237 B.n154 163.367
R402 B.n241 B.n154 163.367
R403 B.n242 B.n241 163.367
R404 B.n243 B.n242 163.367
R405 B.n243 B.n152 163.367
R406 B.n247 B.n152 163.367
R407 B.n248 B.n247 163.367
R408 B.n249 B.n248 163.367
R409 B.n249 B.n150 163.367
R410 B.n253 B.n150 163.367
R411 B.n254 B.n253 163.367
R412 B.n255 B.n254 163.367
R413 B.n255 B.n148 163.367
R414 B.n259 B.n148 163.367
R415 B.n260 B.n259 163.367
R416 B.n261 B.n260 163.367
R417 B.n261 B.n146 163.367
R418 B.n265 B.n146 163.367
R419 B.n266 B.n265 163.367
R420 B.n267 B.n266 163.367
R421 B.n267 B.n144 163.367
R422 B.n271 B.n144 163.367
R423 B.n272 B.n271 163.367
R424 B.n273 B.n272 163.367
R425 B.n273 B.n142 163.367
R426 B.n277 B.n142 163.367
R427 B.n278 B.n277 163.367
R428 B.n279 B.n278 163.367
R429 B.n279 B.n140 163.367
R430 B.n283 B.n140 163.367
R431 B.n284 B.n283 163.367
R432 B.n285 B.n284 163.367
R433 B.n285 B.n138 163.367
R434 B.n289 B.n138 163.367
R435 B.n290 B.n289 163.367
R436 B.n290 B.n134 163.367
R437 B.n294 B.n134 163.367
R438 B.n295 B.n294 163.367
R439 B.n296 B.n295 163.367
R440 B.n296 B.n132 163.367
R441 B.n300 B.n132 163.367
R442 B.n301 B.n300 163.367
R443 B.n302 B.n301 163.367
R444 B.n302 B.n128 163.367
R445 B.n307 B.n128 163.367
R446 B.n308 B.n307 163.367
R447 B.n309 B.n308 163.367
R448 B.n309 B.n126 163.367
R449 B.n313 B.n126 163.367
R450 B.n314 B.n313 163.367
R451 B.n315 B.n314 163.367
R452 B.n315 B.n124 163.367
R453 B.n319 B.n124 163.367
R454 B.n320 B.n319 163.367
R455 B.n321 B.n320 163.367
R456 B.n321 B.n122 163.367
R457 B.n325 B.n122 163.367
R458 B.n326 B.n325 163.367
R459 B.n327 B.n326 163.367
R460 B.n327 B.n120 163.367
R461 B.n331 B.n120 163.367
R462 B.n332 B.n331 163.367
R463 B.n333 B.n332 163.367
R464 B.n333 B.n118 163.367
R465 B.n337 B.n118 163.367
R466 B.n338 B.n337 163.367
R467 B.n339 B.n338 163.367
R468 B.n339 B.n116 163.367
R469 B.n343 B.n116 163.367
R470 B.n344 B.n343 163.367
R471 B.n345 B.n344 163.367
R472 B.n345 B.n114 163.367
R473 B.n349 B.n114 163.367
R474 B.n350 B.n349 163.367
R475 B.n351 B.n350 163.367
R476 B.n351 B.n112 163.367
R477 B.n355 B.n112 163.367
R478 B.n356 B.n355 163.367
R479 B.n357 B.n356 163.367
R480 B.n357 B.n110 163.367
R481 B.n361 B.n110 163.367
R482 B.n362 B.n361 163.367
R483 B.n363 B.n362 163.367
R484 B.n363 B.n108 163.367
R485 B.n367 B.n108 163.367
R486 B.n368 B.n367 163.367
R487 B.n369 B.n368 163.367
R488 B.n369 B.n106 163.367
R489 B.n373 B.n106 163.367
R490 B.n374 B.n373 163.367
R491 B.n375 B.n374 163.367
R492 B.n375 B.n104 163.367
R493 B.n379 B.n104 163.367
R494 B.n380 B.n379 163.367
R495 B.n381 B.n380 163.367
R496 B.n381 B.n102 163.367
R497 B.n385 B.n102 163.367
R498 B.n386 B.n385 163.367
R499 B.n387 B.n386 163.367
R500 B.n387 B.n100 163.367
R501 B.n391 B.n100 163.367
R502 B.n392 B.n391 163.367
R503 B.n393 B.n392 163.367
R504 B.n393 B.n98 163.367
R505 B.n397 B.n98 163.367
R506 B.n398 B.n397 163.367
R507 B.n399 B.n398 163.367
R508 B.n399 B.n96 163.367
R509 B.n404 B.n403 163.367
R510 B.n405 B.n404 163.367
R511 B.n405 B.n94 163.367
R512 B.n409 B.n94 163.367
R513 B.n410 B.n409 163.367
R514 B.n411 B.n410 163.367
R515 B.n411 B.n92 163.367
R516 B.n415 B.n92 163.367
R517 B.n416 B.n415 163.367
R518 B.n417 B.n416 163.367
R519 B.n417 B.n90 163.367
R520 B.n421 B.n90 163.367
R521 B.n422 B.n421 163.367
R522 B.n423 B.n422 163.367
R523 B.n423 B.n88 163.367
R524 B.n427 B.n88 163.367
R525 B.n428 B.n427 163.367
R526 B.n429 B.n428 163.367
R527 B.n429 B.n86 163.367
R528 B.n433 B.n86 163.367
R529 B.n434 B.n433 163.367
R530 B.n435 B.n434 163.367
R531 B.n435 B.n84 163.367
R532 B.n439 B.n84 163.367
R533 B.n440 B.n439 163.367
R534 B.n441 B.n440 163.367
R535 B.n650 B.n9 163.367
R536 B.n646 B.n9 163.367
R537 B.n646 B.n645 163.367
R538 B.n645 B.n644 163.367
R539 B.n644 B.n11 163.367
R540 B.n640 B.n11 163.367
R541 B.n640 B.n639 163.367
R542 B.n639 B.n638 163.367
R543 B.n638 B.n13 163.367
R544 B.n634 B.n13 163.367
R545 B.n634 B.n633 163.367
R546 B.n633 B.n632 163.367
R547 B.n632 B.n15 163.367
R548 B.n628 B.n15 163.367
R549 B.n628 B.n627 163.367
R550 B.n627 B.n626 163.367
R551 B.n626 B.n17 163.367
R552 B.n622 B.n17 163.367
R553 B.n622 B.n621 163.367
R554 B.n621 B.n620 163.367
R555 B.n620 B.n19 163.367
R556 B.n616 B.n19 163.367
R557 B.n616 B.n615 163.367
R558 B.n615 B.n614 163.367
R559 B.n614 B.n21 163.367
R560 B.n610 B.n21 163.367
R561 B.n610 B.n609 163.367
R562 B.n609 B.n608 163.367
R563 B.n608 B.n23 163.367
R564 B.n604 B.n23 163.367
R565 B.n604 B.n603 163.367
R566 B.n603 B.n602 163.367
R567 B.n602 B.n25 163.367
R568 B.n598 B.n25 163.367
R569 B.n598 B.n597 163.367
R570 B.n597 B.n596 163.367
R571 B.n596 B.n27 163.367
R572 B.n592 B.n27 163.367
R573 B.n592 B.n591 163.367
R574 B.n591 B.n590 163.367
R575 B.n590 B.n29 163.367
R576 B.n586 B.n29 163.367
R577 B.n586 B.n585 163.367
R578 B.n585 B.n584 163.367
R579 B.n584 B.n31 163.367
R580 B.n580 B.n31 163.367
R581 B.n580 B.n579 163.367
R582 B.n579 B.n578 163.367
R583 B.n578 B.n33 163.367
R584 B.n574 B.n33 163.367
R585 B.n574 B.n573 163.367
R586 B.n573 B.n572 163.367
R587 B.n572 B.n35 163.367
R588 B.n568 B.n35 163.367
R589 B.n568 B.n567 163.367
R590 B.n567 B.n566 163.367
R591 B.n566 B.n37 163.367
R592 B.n562 B.n37 163.367
R593 B.n562 B.n561 163.367
R594 B.n561 B.n560 163.367
R595 B.n560 B.n39 163.367
R596 B.n556 B.n39 163.367
R597 B.n556 B.n555 163.367
R598 B.n555 B.n554 163.367
R599 B.n554 B.n41 163.367
R600 B.n550 B.n41 163.367
R601 B.n550 B.n549 163.367
R602 B.n549 B.n548 163.367
R603 B.n548 B.n46 163.367
R604 B.n544 B.n46 163.367
R605 B.n544 B.n543 163.367
R606 B.n543 B.n542 163.367
R607 B.n542 B.n48 163.367
R608 B.n537 B.n48 163.367
R609 B.n537 B.n536 163.367
R610 B.n536 B.n535 163.367
R611 B.n535 B.n52 163.367
R612 B.n531 B.n52 163.367
R613 B.n531 B.n530 163.367
R614 B.n530 B.n529 163.367
R615 B.n529 B.n54 163.367
R616 B.n525 B.n54 163.367
R617 B.n525 B.n524 163.367
R618 B.n524 B.n523 163.367
R619 B.n523 B.n56 163.367
R620 B.n519 B.n56 163.367
R621 B.n519 B.n518 163.367
R622 B.n518 B.n517 163.367
R623 B.n517 B.n58 163.367
R624 B.n513 B.n58 163.367
R625 B.n513 B.n512 163.367
R626 B.n512 B.n511 163.367
R627 B.n511 B.n60 163.367
R628 B.n507 B.n60 163.367
R629 B.n507 B.n506 163.367
R630 B.n506 B.n505 163.367
R631 B.n505 B.n62 163.367
R632 B.n501 B.n62 163.367
R633 B.n501 B.n500 163.367
R634 B.n500 B.n499 163.367
R635 B.n499 B.n64 163.367
R636 B.n495 B.n64 163.367
R637 B.n495 B.n494 163.367
R638 B.n494 B.n493 163.367
R639 B.n493 B.n66 163.367
R640 B.n489 B.n66 163.367
R641 B.n489 B.n488 163.367
R642 B.n488 B.n487 163.367
R643 B.n487 B.n68 163.367
R644 B.n483 B.n68 163.367
R645 B.n483 B.n482 163.367
R646 B.n482 B.n481 163.367
R647 B.n481 B.n70 163.367
R648 B.n477 B.n70 163.367
R649 B.n477 B.n476 163.367
R650 B.n476 B.n475 163.367
R651 B.n475 B.n72 163.367
R652 B.n471 B.n72 163.367
R653 B.n471 B.n470 163.367
R654 B.n470 B.n469 163.367
R655 B.n469 B.n74 163.367
R656 B.n465 B.n74 163.367
R657 B.n465 B.n464 163.367
R658 B.n464 B.n463 163.367
R659 B.n463 B.n76 163.367
R660 B.n459 B.n76 163.367
R661 B.n459 B.n458 163.367
R662 B.n458 B.n457 163.367
R663 B.n457 B.n78 163.367
R664 B.n453 B.n78 163.367
R665 B.n453 B.n452 163.367
R666 B.n452 B.n451 163.367
R667 B.n451 B.n80 163.367
R668 B.n447 B.n80 163.367
R669 B.n447 B.n446 163.367
R670 B.n446 B.n445 163.367
R671 B.n445 B.n82 163.367
R672 B.n305 B.n130 59.5399
R673 B.n137 B.n136 59.5399
R674 B.n44 B.n43 59.5399
R675 B.n539 B.n50 59.5399
R676 B.n649 B.n8 34.1859
R677 B.n443 B.n442 34.1859
R678 B.n402 B.n401 34.1859
R679 B.n192 B.n169 34.1859
R680 B B.n671 18.0485
R681 B.n130 B.n129 16.0975
R682 B.n136 B.n135 16.0975
R683 B.n43 B.n42 16.0975
R684 B.n50 B.n49 16.0975
R685 B.n649 B.n648 10.6151
R686 B.n648 B.n647 10.6151
R687 B.n647 B.n10 10.6151
R688 B.n643 B.n10 10.6151
R689 B.n643 B.n642 10.6151
R690 B.n642 B.n641 10.6151
R691 B.n641 B.n12 10.6151
R692 B.n637 B.n12 10.6151
R693 B.n637 B.n636 10.6151
R694 B.n636 B.n635 10.6151
R695 B.n635 B.n14 10.6151
R696 B.n631 B.n14 10.6151
R697 B.n631 B.n630 10.6151
R698 B.n630 B.n629 10.6151
R699 B.n629 B.n16 10.6151
R700 B.n625 B.n16 10.6151
R701 B.n625 B.n624 10.6151
R702 B.n624 B.n623 10.6151
R703 B.n623 B.n18 10.6151
R704 B.n619 B.n18 10.6151
R705 B.n619 B.n618 10.6151
R706 B.n618 B.n617 10.6151
R707 B.n617 B.n20 10.6151
R708 B.n613 B.n20 10.6151
R709 B.n613 B.n612 10.6151
R710 B.n612 B.n611 10.6151
R711 B.n611 B.n22 10.6151
R712 B.n607 B.n22 10.6151
R713 B.n607 B.n606 10.6151
R714 B.n606 B.n605 10.6151
R715 B.n605 B.n24 10.6151
R716 B.n601 B.n24 10.6151
R717 B.n601 B.n600 10.6151
R718 B.n600 B.n599 10.6151
R719 B.n599 B.n26 10.6151
R720 B.n595 B.n26 10.6151
R721 B.n595 B.n594 10.6151
R722 B.n594 B.n593 10.6151
R723 B.n593 B.n28 10.6151
R724 B.n589 B.n28 10.6151
R725 B.n589 B.n588 10.6151
R726 B.n588 B.n587 10.6151
R727 B.n587 B.n30 10.6151
R728 B.n583 B.n30 10.6151
R729 B.n583 B.n582 10.6151
R730 B.n582 B.n581 10.6151
R731 B.n581 B.n32 10.6151
R732 B.n577 B.n32 10.6151
R733 B.n577 B.n576 10.6151
R734 B.n576 B.n575 10.6151
R735 B.n575 B.n34 10.6151
R736 B.n571 B.n34 10.6151
R737 B.n571 B.n570 10.6151
R738 B.n570 B.n569 10.6151
R739 B.n569 B.n36 10.6151
R740 B.n565 B.n36 10.6151
R741 B.n565 B.n564 10.6151
R742 B.n564 B.n563 10.6151
R743 B.n563 B.n38 10.6151
R744 B.n559 B.n38 10.6151
R745 B.n559 B.n558 10.6151
R746 B.n558 B.n557 10.6151
R747 B.n557 B.n40 10.6151
R748 B.n553 B.n552 10.6151
R749 B.n552 B.n551 10.6151
R750 B.n551 B.n45 10.6151
R751 B.n547 B.n45 10.6151
R752 B.n547 B.n546 10.6151
R753 B.n546 B.n545 10.6151
R754 B.n545 B.n47 10.6151
R755 B.n541 B.n47 10.6151
R756 B.n541 B.n540 10.6151
R757 B.n538 B.n51 10.6151
R758 B.n534 B.n51 10.6151
R759 B.n534 B.n533 10.6151
R760 B.n533 B.n532 10.6151
R761 B.n532 B.n53 10.6151
R762 B.n528 B.n53 10.6151
R763 B.n528 B.n527 10.6151
R764 B.n527 B.n526 10.6151
R765 B.n526 B.n55 10.6151
R766 B.n522 B.n55 10.6151
R767 B.n522 B.n521 10.6151
R768 B.n521 B.n520 10.6151
R769 B.n520 B.n57 10.6151
R770 B.n516 B.n57 10.6151
R771 B.n516 B.n515 10.6151
R772 B.n515 B.n514 10.6151
R773 B.n514 B.n59 10.6151
R774 B.n510 B.n59 10.6151
R775 B.n510 B.n509 10.6151
R776 B.n509 B.n508 10.6151
R777 B.n508 B.n61 10.6151
R778 B.n504 B.n61 10.6151
R779 B.n504 B.n503 10.6151
R780 B.n503 B.n502 10.6151
R781 B.n502 B.n63 10.6151
R782 B.n498 B.n63 10.6151
R783 B.n498 B.n497 10.6151
R784 B.n497 B.n496 10.6151
R785 B.n496 B.n65 10.6151
R786 B.n492 B.n65 10.6151
R787 B.n492 B.n491 10.6151
R788 B.n491 B.n490 10.6151
R789 B.n490 B.n67 10.6151
R790 B.n486 B.n67 10.6151
R791 B.n486 B.n485 10.6151
R792 B.n485 B.n484 10.6151
R793 B.n484 B.n69 10.6151
R794 B.n480 B.n69 10.6151
R795 B.n480 B.n479 10.6151
R796 B.n479 B.n478 10.6151
R797 B.n478 B.n71 10.6151
R798 B.n474 B.n71 10.6151
R799 B.n474 B.n473 10.6151
R800 B.n473 B.n472 10.6151
R801 B.n472 B.n73 10.6151
R802 B.n468 B.n73 10.6151
R803 B.n468 B.n467 10.6151
R804 B.n467 B.n466 10.6151
R805 B.n466 B.n75 10.6151
R806 B.n462 B.n75 10.6151
R807 B.n462 B.n461 10.6151
R808 B.n461 B.n460 10.6151
R809 B.n460 B.n77 10.6151
R810 B.n456 B.n77 10.6151
R811 B.n456 B.n455 10.6151
R812 B.n455 B.n454 10.6151
R813 B.n454 B.n79 10.6151
R814 B.n450 B.n79 10.6151
R815 B.n450 B.n449 10.6151
R816 B.n449 B.n448 10.6151
R817 B.n448 B.n81 10.6151
R818 B.n444 B.n81 10.6151
R819 B.n444 B.n443 10.6151
R820 B.n402 B.n95 10.6151
R821 B.n406 B.n95 10.6151
R822 B.n407 B.n406 10.6151
R823 B.n408 B.n407 10.6151
R824 B.n408 B.n93 10.6151
R825 B.n412 B.n93 10.6151
R826 B.n413 B.n412 10.6151
R827 B.n414 B.n413 10.6151
R828 B.n414 B.n91 10.6151
R829 B.n418 B.n91 10.6151
R830 B.n419 B.n418 10.6151
R831 B.n420 B.n419 10.6151
R832 B.n420 B.n89 10.6151
R833 B.n424 B.n89 10.6151
R834 B.n425 B.n424 10.6151
R835 B.n426 B.n425 10.6151
R836 B.n426 B.n87 10.6151
R837 B.n430 B.n87 10.6151
R838 B.n431 B.n430 10.6151
R839 B.n432 B.n431 10.6151
R840 B.n432 B.n85 10.6151
R841 B.n436 B.n85 10.6151
R842 B.n437 B.n436 10.6151
R843 B.n438 B.n437 10.6151
R844 B.n438 B.n83 10.6151
R845 B.n442 B.n83 10.6151
R846 B.n196 B.n169 10.6151
R847 B.n197 B.n196 10.6151
R848 B.n198 B.n197 10.6151
R849 B.n198 B.n167 10.6151
R850 B.n202 B.n167 10.6151
R851 B.n203 B.n202 10.6151
R852 B.n204 B.n203 10.6151
R853 B.n204 B.n165 10.6151
R854 B.n208 B.n165 10.6151
R855 B.n209 B.n208 10.6151
R856 B.n210 B.n209 10.6151
R857 B.n210 B.n163 10.6151
R858 B.n214 B.n163 10.6151
R859 B.n215 B.n214 10.6151
R860 B.n216 B.n215 10.6151
R861 B.n216 B.n161 10.6151
R862 B.n220 B.n161 10.6151
R863 B.n221 B.n220 10.6151
R864 B.n222 B.n221 10.6151
R865 B.n222 B.n159 10.6151
R866 B.n226 B.n159 10.6151
R867 B.n227 B.n226 10.6151
R868 B.n228 B.n227 10.6151
R869 B.n228 B.n157 10.6151
R870 B.n232 B.n157 10.6151
R871 B.n233 B.n232 10.6151
R872 B.n234 B.n233 10.6151
R873 B.n234 B.n155 10.6151
R874 B.n238 B.n155 10.6151
R875 B.n239 B.n238 10.6151
R876 B.n240 B.n239 10.6151
R877 B.n240 B.n153 10.6151
R878 B.n244 B.n153 10.6151
R879 B.n245 B.n244 10.6151
R880 B.n246 B.n245 10.6151
R881 B.n246 B.n151 10.6151
R882 B.n250 B.n151 10.6151
R883 B.n251 B.n250 10.6151
R884 B.n252 B.n251 10.6151
R885 B.n252 B.n149 10.6151
R886 B.n256 B.n149 10.6151
R887 B.n257 B.n256 10.6151
R888 B.n258 B.n257 10.6151
R889 B.n258 B.n147 10.6151
R890 B.n262 B.n147 10.6151
R891 B.n263 B.n262 10.6151
R892 B.n264 B.n263 10.6151
R893 B.n264 B.n145 10.6151
R894 B.n268 B.n145 10.6151
R895 B.n269 B.n268 10.6151
R896 B.n270 B.n269 10.6151
R897 B.n270 B.n143 10.6151
R898 B.n274 B.n143 10.6151
R899 B.n275 B.n274 10.6151
R900 B.n276 B.n275 10.6151
R901 B.n276 B.n141 10.6151
R902 B.n280 B.n141 10.6151
R903 B.n281 B.n280 10.6151
R904 B.n282 B.n281 10.6151
R905 B.n282 B.n139 10.6151
R906 B.n286 B.n139 10.6151
R907 B.n287 B.n286 10.6151
R908 B.n288 B.n287 10.6151
R909 B.n292 B.n291 10.6151
R910 B.n293 B.n292 10.6151
R911 B.n293 B.n133 10.6151
R912 B.n297 B.n133 10.6151
R913 B.n298 B.n297 10.6151
R914 B.n299 B.n298 10.6151
R915 B.n299 B.n131 10.6151
R916 B.n303 B.n131 10.6151
R917 B.n304 B.n303 10.6151
R918 B.n306 B.n127 10.6151
R919 B.n310 B.n127 10.6151
R920 B.n311 B.n310 10.6151
R921 B.n312 B.n311 10.6151
R922 B.n312 B.n125 10.6151
R923 B.n316 B.n125 10.6151
R924 B.n317 B.n316 10.6151
R925 B.n318 B.n317 10.6151
R926 B.n318 B.n123 10.6151
R927 B.n322 B.n123 10.6151
R928 B.n323 B.n322 10.6151
R929 B.n324 B.n323 10.6151
R930 B.n324 B.n121 10.6151
R931 B.n328 B.n121 10.6151
R932 B.n329 B.n328 10.6151
R933 B.n330 B.n329 10.6151
R934 B.n330 B.n119 10.6151
R935 B.n334 B.n119 10.6151
R936 B.n335 B.n334 10.6151
R937 B.n336 B.n335 10.6151
R938 B.n336 B.n117 10.6151
R939 B.n340 B.n117 10.6151
R940 B.n341 B.n340 10.6151
R941 B.n342 B.n341 10.6151
R942 B.n342 B.n115 10.6151
R943 B.n346 B.n115 10.6151
R944 B.n347 B.n346 10.6151
R945 B.n348 B.n347 10.6151
R946 B.n348 B.n113 10.6151
R947 B.n352 B.n113 10.6151
R948 B.n353 B.n352 10.6151
R949 B.n354 B.n353 10.6151
R950 B.n354 B.n111 10.6151
R951 B.n358 B.n111 10.6151
R952 B.n359 B.n358 10.6151
R953 B.n360 B.n359 10.6151
R954 B.n360 B.n109 10.6151
R955 B.n364 B.n109 10.6151
R956 B.n365 B.n364 10.6151
R957 B.n366 B.n365 10.6151
R958 B.n366 B.n107 10.6151
R959 B.n370 B.n107 10.6151
R960 B.n371 B.n370 10.6151
R961 B.n372 B.n371 10.6151
R962 B.n372 B.n105 10.6151
R963 B.n376 B.n105 10.6151
R964 B.n377 B.n376 10.6151
R965 B.n378 B.n377 10.6151
R966 B.n378 B.n103 10.6151
R967 B.n382 B.n103 10.6151
R968 B.n383 B.n382 10.6151
R969 B.n384 B.n383 10.6151
R970 B.n384 B.n101 10.6151
R971 B.n388 B.n101 10.6151
R972 B.n389 B.n388 10.6151
R973 B.n390 B.n389 10.6151
R974 B.n390 B.n99 10.6151
R975 B.n394 B.n99 10.6151
R976 B.n395 B.n394 10.6151
R977 B.n396 B.n395 10.6151
R978 B.n396 B.n97 10.6151
R979 B.n400 B.n97 10.6151
R980 B.n401 B.n400 10.6151
R981 B.n192 B.n191 10.6151
R982 B.n191 B.n190 10.6151
R983 B.n190 B.n171 10.6151
R984 B.n186 B.n171 10.6151
R985 B.n186 B.n185 10.6151
R986 B.n185 B.n184 10.6151
R987 B.n184 B.n173 10.6151
R988 B.n180 B.n173 10.6151
R989 B.n180 B.n179 10.6151
R990 B.n179 B.n178 10.6151
R991 B.n178 B.n175 10.6151
R992 B.n175 B.n0 10.6151
R993 B.n667 B.n1 10.6151
R994 B.n667 B.n666 10.6151
R995 B.n666 B.n665 10.6151
R996 B.n665 B.n4 10.6151
R997 B.n661 B.n4 10.6151
R998 B.n661 B.n660 10.6151
R999 B.n660 B.n659 10.6151
R1000 B.n659 B.n6 10.6151
R1001 B.n655 B.n6 10.6151
R1002 B.n655 B.n654 10.6151
R1003 B.n654 B.n653 10.6151
R1004 B.n653 B.n8 10.6151
R1005 B.n44 B.n40 8.74196
R1006 B.n539 B.n538 8.74196
R1007 B.n288 B.n137 8.74196
R1008 B.n306 B.n305 8.74196
R1009 B.n671 B.n0 2.81026
R1010 B.n671 B.n1 2.81026
R1011 B.n553 B.n44 1.87367
R1012 B.n540 B.n539 1.87367
R1013 B.n291 B.n137 1.87367
R1014 B.n305 B.n304 1.87367
R1015 VP.n0 VP.t0 1235.32
R1016 VP.n0 VP.t1 1190.37
R1017 VP VP.n0 0.0516364
R1018 VTAIL.n434 VTAIL.n330 756.745
R1019 VTAIL.n104 VTAIL.n0 756.745
R1020 VTAIL.n324 VTAIL.n220 756.745
R1021 VTAIL.n214 VTAIL.n110 756.745
R1022 VTAIL.n367 VTAIL.n366 585
R1023 VTAIL.n369 VTAIL.n368 585
R1024 VTAIL.n362 VTAIL.n361 585
R1025 VTAIL.n375 VTAIL.n374 585
R1026 VTAIL.n377 VTAIL.n376 585
R1027 VTAIL.n358 VTAIL.n357 585
R1028 VTAIL.n383 VTAIL.n382 585
R1029 VTAIL.n385 VTAIL.n384 585
R1030 VTAIL.n354 VTAIL.n353 585
R1031 VTAIL.n391 VTAIL.n390 585
R1032 VTAIL.n393 VTAIL.n392 585
R1033 VTAIL.n350 VTAIL.n349 585
R1034 VTAIL.n399 VTAIL.n398 585
R1035 VTAIL.n401 VTAIL.n400 585
R1036 VTAIL.n346 VTAIL.n345 585
R1037 VTAIL.n408 VTAIL.n407 585
R1038 VTAIL.n409 VTAIL.n344 585
R1039 VTAIL.n411 VTAIL.n410 585
R1040 VTAIL.n342 VTAIL.n341 585
R1041 VTAIL.n417 VTAIL.n416 585
R1042 VTAIL.n419 VTAIL.n418 585
R1043 VTAIL.n338 VTAIL.n337 585
R1044 VTAIL.n425 VTAIL.n424 585
R1045 VTAIL.n427 VTAIL.n426 585
R1046 VTAIL.n334 VTAIL.n333 585
R1047 VTAIL.n433 VTAIL.n432 585
R1048 VTAIL.n435 VTAIL.n434 585
R1049 VTAIL.n37 VTAIL.n36 585
R1050 VTAIL.n39 VTAIL.n38 585
R1051 VTAIL.n32 VTAIL.n31 585
R1052 VTAIL.n45 VTAIL.n44 585
R1053 VTAIL.n47 VTAIL.n46 585
R1054 VTAIL.n28 VTAIL.n27 585
R1055 VTAIL.n53 VTAIL.n52 585
R1056 VTAIL.n55 VTAIL.n54 585
R1057 VTAIL.n24 VTAIL.n23 585
R1058 VTAIL.n61 VTAIL.n60 585
R1059 VTAIL.n63 VTAIL.n62 585
R1060 VTAIL.n20 VTAIL.n19 585
R1061 VTAIL.n69 VTAIL.n68 585
R1062 VTAIL.n71 VTAIL.n70 585
R1063 VTAIL.n16 VTAIL.n15 585
R1064 VTAIL.n78 VTAIL.n77 585
R1065 VTAIL.n79 VTAIL.n14 585
R1066 VTAIL.n81 VTAIL.n80 585
R1067 VTAIL.n12 VTAIL.n11 585
R1068 VTAIL.n87 VTAIL.n86 585
R1069 VTAIL.n89 VTAIL.n88 585
R1070 VTAIL.n8 VTAIL.n7 585
R1071 VTAIL.n95 VTAIL.n94 585
R1072 VTAIL.n97 VTAIL.n96 585
R1073 VTAIL.n4 VTAIL.n3 585
R1074 VTAIL.n103 VTAIL.n102 585
R1075 VTAIL.n105 VTAIL.n104 585
R1076 VTAIL.n325 VTAIL.n324 585
R1077 VTAIL.n323 VTAIL.n322 585
R1078 VTAIL.n224 VTAIL.n223 585
R1079 VTAIL.n317 VTAIL.n316 585
R1080 VTAIL.n315 VTAIL.n314 585
R1081 VTAIL.n228 VTAIL.n227 585
R1082 VTAIL.n309 VTAIL.n308 585
R1083 VTAIL.n307 VTAIL.n306 585
R1084 VTAIL.n232 VTAIL.n231 585
R1085 VTAIL.n236 VTAIL.n234 585
R1086 VTAIL.n301 VTAIL.n300 585
R1087 VTAIL.n299 VTAIL.n298 585
R1088 VTAIL.n238 VTAIL.n237 585
R1089 VTAIL.n293 VTAIL.n292 585
R1090 VTAIL.n291 VTAIL.n290 585
R1091 VTAIL.n242 VTAIL.n241 585
R1092 VTAIL.n285 VTAIL.n284 585
R1093 VTAIL.n283 VTAIL.n282 585
R1094 VTAIL.n246 VTAIL.n245 585
R1095 VTAIL.n277 VTAIL.n276 585
R1096 VTAIL.n275 VTAIL.n274 585
R1097 VTAIL.n250 VTAIL.n249 585
R1098 VTAIL.n269 VTAIL.n268 585
R1099 VTAIL.n267 VTAIL.n266 585
R1100 VTAIL.n254 VTAIL.n253 585
R1101 VTAIL.n261 VTAIL.n260 585
R1102 VTAIL.n259 VTAIL.n258 585
R1103 VTAIL.n215 VTAIL.n214 585
R1104 VTAIL.n213 VTAIL.n212 585
R1105 VTAIL.n114 VTAIL.n113 585
R1106 VTAIL.n207 VTAIL.n206 585
R1107 VTAIL.n205 VTAIL.n204 585
R1108 VTAIL.n118 VTAIL.n117 585
R1109 VTAIL.n199 VTAIL.n198 585
R1110 VTAIL.n197 VTAIL.n196 585
R1111 VTAIL.n122 VTAIL.n121 585
R1112 VTAIL.n126 VTAIL.n124 585
R1113 VTAIL.n191 VTAIL.n190 585
R1114 VTAIL.n189 VTAIL.n188 585
R1115 VTAIL.n128 VTAIL.n127 585
R1116 VTAIL.n183 VTAIL.n182 585
R1117 VTAIL.n181 VTAIL.n180 585
R1118 VTAIL.n132 VTAIL.n131 585
R1119 VTAIL.n175 VTAIL.n174 585
R1120 VTAIL.n173 VTAIL.n172 585
R1121 VTAIL.n136 VTAIL.n135 585