* NGSPICE file created from diff_pair_sample_1489.ext - technology: sky130A

.subckt diff_pair_sample_1489 VTAIL VN VP B VDD2 VDD1
X0 VDD1.t1 VP.t0 VTAIL.t2 w_n1466_n4772# sky130_fd_pr__pfet_01v8 ad=7.41 pd=38.78 as=7.41 ps=38.78 w=19 l=0.91
X1 B.t11 B.t9 B.t10 w_n1466_n4772# sky130_fd_pr__pfet_01v8 ad=7.41 pd=38.78 as=0 ps=0 w=19 l=0.91
X2 B.t8 B.t6 B.t7 w_n1466_n4772# sky130_fd_pr__pfet_01v8 ad=7.41 pd=38.78 as=0 ps=0 w=19 l=0.91
X3 B.t5 B.t3 B.t4 w_n1466_n4772# sky130_fd_pr__pfet_01v8 ad=7.41 pd=38.78 as=0 ps=0 w=19 l=0.91
X4 B.t2 B.t0 B.t1 w_n1466_n4772# sky130_fd_pr__pfet_01v8 ad=7.41 pd=38.78 as=0 ps=0 w=19 l=0.91
X5 VDD2.t1 VN.t0 VTAIL.t1 w_n1466_n4772# sky130_fd_pr__pfet_01v8 ad=7.41 pd=38.78 as=7.41 ps=38.78 w=19 l=0.91
X6 VDD2.t0 VN.t1 VTAIL.t0 w_n1466_n4772# sky130_fd_pr__pfet_01v8 ad=7.41 pd=38.78 as=7.41 ps=38.78 w=19 l=0.91
X7 VDD1.t0 VP.t1 VTAIL.t3 w_n1466_n4772# sky130_fd_pr__pfet_01v8 ad=7.41 pd=38.78 as=7.41 ps=38.78 w=19 l=0.91
R0 VP.n0 VP.t0 753.148
R1 VP.n0 VP.t1 707.655
R2 VP VP.n0 0.0516364
R3 VTAIL.n418 VTAIL.n318 756.745
R4 VTAIL.n100 VTAIL.n0 756.745
R5 VTAIL.n312 VTAIL.n212 756.745
R6 VTAIL.n206 VTAIL.n106 756.745
R7 VTAIL.n353 VTAIL.n352 585
R8 VTAIL.n350 VTAIL.n349 585
R9 VTAIL.n359 VTAIL.n358 585
R10 VTAIL.n361 VTAIL.n360 585
R11 VTAIL.n346 VTAIL.n345 585
R12 VTAIL.n367 VTAIL.n366 585
R13 VTAIL.n369 VTAIL.n368 585
R14 VTAIL.n342 VTAIL.n341 585
R15 VTAIL.n375 VTAIL.n374 585
R16 VTAIL.n377 VTAIL.n376 585
R17 VTAIL.n338 VTAIL.n337 585
R18 VTAIL.n383 VTAIL.n382 585
R19 VTAIL.n385 VTAIL.n384 585
R20 VTAIL.n334 VTAIL.n333 585
R21 VTAIL.n391 VTAIL.n390 585
R22 VTAIL.n394 VTAIL.n393 585
R23 VTAIL.n392 VTAIL.n330 585
R24 VTAIL.n399 VTAIL.n329 585
R25 VTAIL.n401 VTAIL.n400 585
R26 VTAIL.n403 VTAIL.n402 585
R27 VTAIL.n326 VTAIL.n325 585
R28 VTAIL.n409 VTAIL.n408 585
R29 VTAIL.n411 VTAIL.n410 585
R30 VTAIL.n322 VTAIL.n321 585
R31 VTAIL.n417 VTAIL.n416 585
R32 VTAIL.n419 VTAIL.n418 585
R33 VTAIL.n35 VTAIL.n34 585
R34 VTAIL.n32 VTAIL.n31 585
R35 VTAIL.n41 VTAIL.n40 585
R36 VTAIL.n43 VTAIL.n42 585
R37 VTAIL.n28 VTAIL.n27 585
R38 VTAIL.n49 VTAIL.n48 585
R39 VTAIL.n51 VTAIL.n50 585
R40 VTAIL.n24 VTAIL.n23 585
R41 VTAIL.n57 VTAIL.n56 585
R42 VTAIL.n59 VTAIL.n58 585
R43 VTAIL.n20 VTAIL.n19 585
R44 VTAIL.n65 VTAIL.n64 585
R45 VTAIL.n67 VTAIL.n66 585
R46 VTAIL.n16 VTAIL.n15 585
R47 VTAIL.n73 VTAIL.n72 585
R48 VTAIL.n76 VTAIL.n75 585
R49 VTAIL.n74 VTAIL.n12 585
R50 VTAIL.n81 VTAIL.n11 585
R51 VTAIL.n83 VTAIL.n82 585
R52 VTAIL.n85 VTAIL.n84 585
R53 VTAIL.n8 VTAIL.n7 585
R54 VTAIL.n91 VTAIL.n90 585
R55 VTAIL.n93 VTAIL.n92 585
R56 VTAIL.n4 VTAIL.n3 585
R57 VTAIL.n99 VTAIL.n98 585
R58 VTAIL.n101 VTAIL.n100 585
R59 VTAIL.n313 VTAIL.n312 585
R60 VTAIL.n311 VTAIL.n310 585
R61 VTAIL.n216 VTAIL.n215 585
R62 VTAIL.n305 VTAIL.n304 585
R63 VTAIL.n303 VTAIL.n302 585
R64 VTAIL.n220 VTAIL.n219 585
R65 VTAIL.n297 VTAIL.n296 585
R66 VTAIL.n295 VTAIL.n294 585
R67 VTAIL.n293 VTAIL.n223 585
R68 VTAIL.n227 VTAIL.n224 585
R69 VTAIL.n288 VTAIL.n287 585
R70 VTAIL.n286 VTAIL.n285 585
R71 VTAIL.n229 VTAIL.n228 585
R72 VTAIL.n280 VTAIL.n279 585
R73 VTAIL.n278 VTAIL.n277 585
R74 VTAIL.n233 VTAIL.n232 585
R75 VTAIL.n272 VTAIL.n271 585
R76 VTAIL.n270 VTAIL.n269 585
R77 VTAIL.n237 VTAIL.n236 585
R78 VTAIL.n264 VTAIL.n263 585
R79 VTAIL.n262 VTAIL.n261 585
R80 VTAIL.n241 VTAIL.n240 585
R81 VTAIL.n256 VTAIL.n255 585
R82 VTAIL.n254 VTAIL.n253 585
R83 VTAIL.n245 VTAIL.n244 585
R84 VTAIL.n248 VTAIL.n247 585
R85 VTAIL.n207 VTAIL.n206 585
R86 VTAIL.n205 VTAIL.n204 585
R87 VTAIL.n110 VTAIL.n109 585
R88 VTAIL.n199 VTAIL.n198 585
R89 VTAIL.n197 VTAIL.n196 585
R90 VTAIL.n114 VTAIL.n113 585
R91 VTAIL.n191 VTAIL.n190 585
R92 VTAIL.n189 VTAIL.n188 585
R93 VTAIL.n187 VTAIL.n117 585
R94 VTAIL.n121 VTAIL.n118 585
R95 VTAIL.n182 VTAIL.n181 585
R96 VTAIL.n180 VTAIL.n179 585
R97 VTAIL.n123 VTAIL.n122 585
R98 VTAIL.n174 VTAIL.n173 585
R99 VTAIL.n172 VTAIL.n171 585
R100 VTAIL.n127 VTAIL.n126 585
R101 VTAIL.n166 VTAIL.n165 585
R102 VTAIL.n164 VTAIL.n163 585
R103 VTAIL.n131 VTAIL.n130 585
R104 VTAIL.n158 VTAIL.n157 585
R105 VTAIL.n156 VTAIL.n155 585
R106 VTAIL.n135 VTAIL.n134 585
R107 VTAIL.n150 VTAIL.n149 585
R108 VTAIL.n148 VTAIL.n147 585
R109 VTAIL.n139 VTAIL.n138 585
R110 VTAIL.n142 VTAIL.n141 585
R111 VTAIL.t2 VTAIL.n246 327.466
R112 VTAIL.t1 VTAIL.n140 327.466
R113 VTAIL.t0 VTAIL.n351 327.466
R114 VTAIL.t3 VTAIL.n33 327.466
R115 VTAIL.n352 VTAIL.n349 171.744
R116 VTAIL.n359 VTAIL.n349 171.744
R117 VTAIL.n360 VTAIL.n359 171.744
R118 VTAIL.n360 VTAIL.n345 171.744
R119 VTAIL.n367 VTAIL.n345 171.744
R120 VTAIL.n368 VTAIL.n367 171.744
R121 VTAIL.n368 VTAIL.n341 171.744
R122 VTAIL.n375 VTAIL.n341 171.744
R123 VTAIL.n376 VTAIL.n375 171.744
R124 VTAIL.n376 VTAIL.n337 171.744
R125 VTAIL.n383 VTAIL.n337 171.744
R126 VTAIL.n384 VTAIL.n383 171.744
R127 VTAIL.n384 VTAIL.n333 171.744
R128 VTAIL.n391 VTAIL.n333 171.744
R129 VTAIL.n393 VTAIL.n391 171.744
R130 VTAIL.n393 VTAIL.n392 171.744
R131 VTAIL.n392 VTAIL.n329 171.744
R132 VTAIL.n401 VTAIL.n329 171.744
R133 VTAIL.n402 VTAIL.n401 171.744
R134 VTAIL.n402 VTAIL.n325 171.744
R135 VTAIL.n409 VTAIL.n325 171.744
R136 VTAIL.n410 VTAIL.n409 171.744
R137 VTAIL.n410 VTAIL.n321 171.744
R138 VTAIL.n417 VTAIL.n321 171.744
R139 VTAIL.n418 VTAIL.n417 171.744
R140 VTAIL.n34 VTAIL.n31 171.744
R141 VTAIL.n41 VTAIL.n31 171.744
R142 VTAIL.n42 VTAIL.n41 171.744
R143 VTAIL.n42 VTAIL.n27 171.744
R144 VTAIL.n49 VTAIL.n27 171.744
R145 VTAIL.n50 VTAIL.n49 171.744
R146 VTAIL.n50 VTAIL.n23 171.744
R147 VTAIL.n57 VTAIL.n23 171.744
R148 VTAIL.n58 VTAIL.n57 171.744
R149 VTAIL.n58 VTAIL.n19 171.744
R150 VTAIL.n65 VTAIL.n19 171.744
R151 VTAIL.n66 VTAIL.n65 171.744
R152 VTAIL.n66 VTAIL.n15 171.744
R153 VTAIL.n73 VTAIL.n15 171.744
R154 VTAIL.n75 VTAIL.n73 171.744
R155 VTAIL.n75 VTAIL.n74 171.744
R156 VTAIL.n74 VTAIL.n11 171.744
R157 VTAIL.n83 VTAIL.n11 171.744
R158 VTAIL.n84 VTAIL.n83 171.744
R159 VTAIL.n84 VTAIL.n7 171.744
R160 VTAIL.n91 VTAIL.n7 171.744
R161 VTAIL.n92 VTAIL.n91 171.744
R162 VTAIL.n92 VTAIL.n3 171.744
R163 VTAIL.n99 VTAIL.n3 171.744
R164 VTAIL.n100 VTAIL.n99 171.744
R165 VTAIL.n312 VTAIL.n311 171.744
R166 VTAIL.n311 VTAIL.n215 171.744
R167 VTAIL.n304 VTAIL.n215 171.744
R168 VTAIL.n304 VTAIL.n303 171.744
R169 VTAIL.n303 VTAIL.n219 171.744
R170 VTAIL.n296 VTAIL.n219 171.744
R171 VTAIL.n296 VTAIL.n295 171.744
R172 VTAIL.n295 VTAIL.n223 171.744
R173 VTAIL.n227 VTAIL.n223 171.744
R174 VTAIL.n287 VTAIL.n227 171.744
R175 VTAIL.n287 VTAIL.n286 171.744
R176 VTAIL.n286 VTAIL.n228 171.744
R177 VTAIL.n279 VTAIL.n228 171.744
R178 VTAIL.n279 VTAIL.n278 171.744
R179 VTAIL.n278 VTAIL.n232 171.744
R180 VTAIL.n271 VTAIL.n232 171.744
R181 VTAIL.n271 VTAIL.n270 171.744
R182 VTAIL.n270 VTAIL.n236 171.744
R183 VTAIL.n263 VTAIL.n236 171.744
R184 VTAIL.n263 VTAIL.n262 171.744
R185 VTAIL.n262 VTAIL.n240 171.744
R186 VTAIL.n255 VTAIL.n240 171.744
R187 VTAIL.n255 VTAIL.n254 171.744
R188 VTAIL.n254 VTAIL.n244 171.744
R189 VTAIL.n247 VTAIL.n244 171.744
R190 VTAIL.n206 VTAIL.n205 171.744
R191 VTAIL.n205 VTAIL.n109 171.744
R192 VTAIL.n198 VTAIL.n109 171.744
R193 VTAIL.n198 VTAIL.n197 171.744
R194 VTAIL.n197 VTAIL.n113 171.744
R195 VTAIL.n190 VTAIL.n113 171.744
R196 VTAIL.n190 VTAIL.n189 171.744
R197 VTAIL.n189 VTAIL.n117 171.744
R198 VTAIL.n121 VTAIL.n117 171.744
R199 VTAIL.n181 VTAIL.n121 171.744
R200 VTAIL.n181 VTAIL.n180 171.744
R201 VTAIL.n180 VTAIL.n122 171.744
R202 VTAIL.n173 VTAIL.n122 171.744
R203 VTAIL.n173 VTAIL.n172 171.744
R204 VTAIL.n172 VTAIL.n126 171.744
R205 VTAIL.n165 VTAIL.n126 171.744
R206 VTAIL.n165 VTAIL.n164 171.744
R207 VTAIL.n164 VTAIL.n130 171.744
R208 VTAIL.n157 VTAIL.n130 171.744
R209 VTAIL.n157 VTAIL.n156 171.744
R210 VTAIL.n156 VTAIL.n134 171.744
R211 VTAIL.n149 VTAIL.n134 171.744
R212 VTAIL.n149 VTAIL.n148 171.744
R213 VTAIL.n148 VTAIL.n138 171.744
R214 VTAIL.n141 VTAIL.n138 171.744
R215 VTAIL.n352 VTAIL.t0 85.8723
R216 VTAIL.n34 VTAIL.t3 85.8723
R217 VTAIL.n247 VTAIL.t2 85.8723
R218 VTAIL.n141 VTAIL.t1 85.8723
R219 VTAIL.n423 VTAIL.n422 32.9611
R220 VTAIL.n105 VTAIL.n104 32.9611
R221 VTAIL.n317 VTAIL.n316 32.9611
R222 VTAIL.n211 VTAIL.n210 32.9611
R223 VTAIL.n211 VTAIL.n105 30.9014
R224 VTAIL.n423 VTAIL.n317 29.8324
R225 VTAIL.n353 VTAIL.n351 16.3895
R226 VTAIL.n35 VTAIL.n33 16.3895
R227 VTAIL.n248 VTAIL.n246 16.3895
R228 VTAIL.n142 VTAIL.n140 16.3895
R229 VTAIL.n400 VTAIL.n399 13.1884
R230 VTAIL.n82 VTAIL.n81 13.1884
R231 VTAIL.n294 VTAIL.n293 13.1884
R232 VTAIL.n188 VTAIL.n187 13.1884
R233 VTAIL.n354 VTAIL.n350 12.8005
R234 VTAIL.n398 VTAIL.n330 12.8005
R235 VTAIL.n403 VTAIL.n328 12.8005
R236 VTAIL.n36 VTAIL.n32 12.8005
R237 VTAIL.n80 VTAIL.n12 12.8005
R238 VTAIL.n85 VTAIL.n10 12.8005
R239 VTAIL.n297 VTAIL.n222 12.8005
R240 VTAIL.n292 VTAIL.n224 12.8005
R241 VTAIL.n249 VTAIL.n245 12.8005
R242 VTAIL.n191 VTAIL.n116 12.8005
R243 VTAIL.n186 VTAIL.n118 12.8005
R244 VTAIL.n143 VTAIL.n139 12.8005
R245 VTAIL.n358 VTAIL.n357 12.0247
R246 VTAIL.n395 VTAIL.n394 12.0247
R247 VTAIL.n404 VTAIL.n326 12.0247
R248 VTAIL.n40 VTAIL.n39 12.0247
R249 VTAIL.n77 VTAIL.n76 12.0247
R250 VTAIL.n86 VTAIL.n8 12.0247
R251 VTAIL.n298 VTAIL.n220 12.0247
R252 VTAIL.n289 VTAIL.n288 12.0247
R253 VTAIL.n253 VTAIL.n252 12.0247
R254 VTAIL.n192 VTAIL.n114 12.0247
R255 VTAIL.n183 VTAIL.n182 12.0247
R256 VTAIL.n147 VTAIL.n146 12.0247
R257 VTAIL.n361 VTAIL.n348 11.249
R258 VTAIL.n390 VTAIL.n332 11.249
R259 VTAIL.n408 VTAIL.n407 11.249
R260 VTAIL.n43 VTAIL.n30 11.249
R261 VTAIL.n72 VTAIL.n14 11.249
R262 VTAIL.n90 VTAIL.n89 11.249
R263 VTAIL.n302 VTAIL.n301 11.249
R264 VTAIL.n285 VTAIL.n226 11.249
R265 VTAIL.n256 VTAIL.n243 11.249
R266 VTAIL.n196 VTAIL.n195 11.249
R267 VTAIL.n179 VTAIL.n120 11.249
R268 VTAIL.n150 VTAIL.n137 11.249
R269 VTAIL.n362 VTAIL.n346 10.4732
R270 VTAIL.n389 VTAIL.n334 10.4732
R271 VTAIL.n411 VTAIL.n324 10.4732
R272 VTAIL.n44 VTAIL.n28 10.4732
R273 VTAIL.n71 VTAIL.n16 10.4732
R274 VTAIL.n93 VTAIL.n6 10.4732
R275 VTAIL.n305 VTAIL.n218 10.4732
R276 VTAIL.n284 VTAIL.n229 10.4732
R277 VTAIL.n257 VTAIL.n241 10.4732
R278 VTAIL.n199 VTAIL.n112 10.4732
R279 VTAIL.n178 VTAIL.n123 10.4732
R280 VTAIL.n151 VTAIL.n135 10.4732
R281 VTAIL.n366 VTAIL.n365 9.69747
R282 VTAIL.n386 VTAIL.n385 9.69747
R283 VTAIL.n412 VTAIL.n322 9.69747
R284 VTAIL.n48 VTAIL.n47 9.69747
R285 VTAIL.n68 VTAIL.n67 9.69747
R286 VTAIL.n94 VTAIL.n4 9.69747
R287 VTAIL.n306 VTAIL.n216 9.69747
R288 VTAIL.n281 VTAIL.n280 9.69747
R289 VTAIL.n261 VTAIL.n260 9.69747
R290 VTAIL.n200 VTAIL.n110 9.69747
R291 VTAIL.n175 VTAIL.n174 9.69747
R292 VTAIL.n155 VTAIL.n154 9.69747
R293 VTAIL.n422 VTAIL.n421 9.45567
R294 VTAIL.n104 VTAIL.n103 9.45567
R295 VTAIL.n316 VTAIL.n315 9.45567
R296 VTAIL.n210 VTAIL.n209 9.45567
R297 VTAIL.n320 VTAIL.n319 9.3005
R298 VTAIL.n415 VTAIL.n414 9.3005
R299 VTAIL.n413 VTAIL.n412 9.3005
R300 VTAIL.n324 VTAIL.n323 9.3005
R301 VTAIL.n407 VTAIL.n406 9.3005
R302 VTAIL.n405 VTAIL.n404 9.3005
R303 VTAIL.n328 VTAIL.n327 9.3005
R304 VTAIL.n373 VTAIL.n372 9.3005
R305 VTAIL.n371 VTAIL.n370 9.3005
R306 VTAIL.n344 VTAIL.n343 9.3005
R307 VTAIL.n365 VTAIL.n364 9.3005
R308 VTAIL.n363 VTAIL.n362 9.3005
R309 VTAIL.n348 VTAIL.n347 9.3005
R310 VTAIL.n357 VTAIL.n356 9.3005
R311 VTAIL.n355 VTAIL.n354 9.3005
R312 VTAIL.n340 VTAIL.n339 9.3005
R313 VTAIL.n379 VTAIL.n378 9.3005
R314 VTAIL.n381 VTAIL.n380 9.3005
R315 VTAIL.n336 VTAIL.n335 9.3005
R316 VTAIL.n387 VTAIL.n386 9.3005
R317 VTAIL.n389 VTAIL.n388 9.3005
R318 VTAIL.n332 VTAIL.n331 9.3005
R319 VTAIL.n396 VTAIL.n395 9.3005
R320 VTAIL.n398 VTAIL.n397 9.3005
R321 VTAIL.n421 VTAIL.n420 9.3005
R322 VTAIL.n2 VTAIL.n1 9.3005
R323 VTAIL.n97 VTAIL.n96 9.3005
R324 VTAIL.n95 VTAIL.n94 9.3005
R325 VTAIL.n6 VTAIL.n5 9.3005
R326 VTAIL.n89 VTAIL.n88 9.3005
R327 VTAIL.n87 VTAIL.n86 9.3005
R328 VTAIL.n10 VTAIL.n9 9.3005
R329 VTAIL.n55 VTAIL.n54 9.3005
R330 VTAIL.n53 VTAIL.n52 9.3005
R331 VTAIL.n26 VTAIL.n25 9.3005
R332 VTAIL.n47 VTAIL.n46 9.3005
R333 VTAIL.n45 VTAIL.n44 9.3005
R334 VTAIL.n30 VTAIL.n29 9.3005
R335 VTAIL.n39 VTAIL.n38 9.3005
R336 VTAIL.n37 VTAIL.n36 9.3005
R337 VTAIL.n22 VTAIL.n21 9.3005
R338 VTAIL.n61 VTAIL.n60 9.3005
R339 VTAIL.n63 VTAIL.n62 9.3005
R340 VTAIL.n18 VTAIL.n17 9.3005
R341 VTAIL.n69 VTAIL.n68 9.3005
R342 VTAIL.n71 VTAIL.n70 9.3005
R343 VTAIL.n14 VTAIL.n13 9.3005
R344 VTAIL.n78 VTAIL.n77 9.3005
R345 VTAIL.n80 VTAIL.n79 9.3005
R346 VTAIL.n103 VTAIL.n102 9.3005
R347 VTAIL.n274 VTAIL.n273 9.3005
R348 VTAIL.n276 VTAIL.n275 9.3005
R349 VTAIL.n231 VTAIL.n230 9.3005
R350 VTAIL.n282 VTAIL.n281 9.3005
R351 VTAIL.n284 VTAIL.n283 9.3005
R352 VTAIL.n226 VTAIL.n225 9.3005
R353 VTAIL.n290 VTAIL.n289 9.3005
R354 VTAIL.n292 VTAIL.n291 9.3005
R355 VTAIL.n315 VTAIL.n314 9.3005
R356 VTAIL.n214 VTAIL.n213 9.3005
R357 VTAIL.n309 VTAIL.n308 9.3005
R358 VTAIL.n307 VTAIL.n306 9.3005
R359 VTAIL.n218 VTAIL.n217 9.3005
R360 VTAIL.n301 VTAIL.n300 9.3005
R361 VTAIL.n299 VTAIL.n298 9.3005
R362 VTAIL.n222 VTAIL.n221 9.3005
R363 VTAIL.n235 VTAIL.n234 9.3005
R364 VTAIL.n268 VTAIL.n267 9.3005
R365 VTAIL.n266 VTAIL.n265 9.3005
R366 VTAIL.n239 VTAIL.n238 9.3005
R367 VTAIL.n260 VTAIL.n259 9.3005
R368 VTAIL.n258 VTAIL.n257 9.3005
R369 VTAIL.n243 VTAIL.n242 9.3005
R370 VTAIL.n252 VTAIL.n251 9.3005
R371 VTAIL.n250 VTAIL.n249 9.3005
R372 VTAIL.n168 VTAIL.n167 9.3005
R373 VTAIL.n170 VTAIL.n169 9.3005
R374 VTAIL.n125 VTAIL.n124 9.3005
R375 VTAIL.n176 VTAIL.n175 9.3005
R376 VTAIL.n178 VTAIL.n177 9.3005
R377 VTAIL.n120 VTAIL.n119 9.3005
R378 VTAIL.n184 VTAIL.n183 9.3005
R379 VTAIL.n186 VTAIL.n185 9.3005
R380 VTAIL.n209 VTAIL.n208 9.3005
R381 VTAIL.n108 VTAIL.n107 9.3005
R382 VTAIL.n203 VTAIL.n202 9.3005
R383 VTAIL.n201 VTAIL.n200 9.3005
R384 VTAIL.n112 VTAIL.n111 9.3005
R385 VTAIL.n195 VTAIL.n194 9.3005
R386 VTAIL.n193 VTAIL.n192 9.3005
R387 VTAIL.n116 VTAIL.n115 9.3005
R388 VTAIL.n129 VTAIL.n128 9.3005
R389 VTAIL.n162 VTAIL.n161 9.3005
R390 VTAIL.n160 VTAIL.n159 9.3005
R391 VTAIL.n133 VTAIL.n132 9.3005
R392 VTAIL.n154 VTAIL.n153 9.3005
R393 VTAIL.n152 VTAIL.n151 9.3005
R394 VTAIL.n137 VTAIL.n136 9.3005
R395 VTAIL.n146 VTAIL.n145 9.3005
R396 VTAIL.n144 VTAIL.n143 9.3005
R397 VTAIL.n369 VTAIL.n344 8.92171
R398 VTAIL.n382 VTAIL.n336 8.92171
R399 VTAIL.n416 VTAIL.n415 8.92171
R400 VTAIL.n51 VTAIL.n26 8.92171
R401 VTAIL.n64 VTAIL.n18 8.92171
R402 VTAIL.n98 VTAIL.n97 8.92171
R403 VTAIL.n310 VTAIL.n309 8.92171
R404 VTAIL.n277 VTAIL.n231 8.92171
R405 VTAIL.n264 VTAIL.n239 8.92171
R406 VTAIL.n204 VTAIL.n203 8.92171
R407 VTAIL.n171 VTAIL.n125 8.92171
R408 VTAIL.n158 VTAIL.n133 8.92171
R409 VTAIL.n370 VTAIL.n342 8.14595
R410 VTAIL.n381 VTAIL.n338 8.14595
R411 VTAIL.n419 VTAIL.n320 8.14595
R412 VTAIL.n52 VTAIL.n24 8.14595
R413 VTAIL.n63 VTAIL.n20 8.14595
R414 VTAIL.n101 VTAIL.n2 8.14595
R415 VTAIL.n313 VTAIL.n214 8.14595
R416 VTAIL.n276 VTAIL.n233 8.14595
R417 VTAIL.n265 VTAIL.n237 8.14595
R418 VTAIL.n207 VTAIL.n108 8.14595
R419 VTAIL.n170 VTAIL.n127 8.14595
R420 VTAIL.n159 VTAIL.n131 8.14595
R421 VTAIL.n374 VTAIL.n373 7.3702
R422 VTAIL.n378 VTAIL.n377 7.3702
R423 VTAIL.n420 VTAIL.n318 7.3702
R424 VTAIL.n56 VTAIL.n55 7.3702
R425 VTAIL.n60 VTAIL.n59 7.3702
R426 VTAIL.n102 VTAIL.n0 7.3702
R427 VTAIL.n314 VTAIL.n212 7.3702
R428 VTAIL.n273 VTAIL.n272 7.3702
R429 VTAIL.n269 VTAIL.n268 7.3702
R430 VTAIL.n208 VTAIL.n106 7.3702
R431 VTAIL.n167 VTAIL.n166 7.3702
R432 VTAIL.n163 VTAIL.n162 7.3702
R433 VTAIL.n374 VTAIL.n340 6.59444
R434 VTAIL.n377 VTAIL.n340 6.59444
R435 VTAIL.n422 VTAIL.n318 6.59444
R436 VTAIL.n56 VTAIL.n22 6.59444
R437 VTAIL.n59 VTAIL.n22 6.59444
R438 VTAIL.n104 VTAIL.n0 6.59444
R439 VTAIL.n316 VTAIL.n212 6.59444
R440 VTAIL.n272 VTAIL.n235 6.59444
R441 VTAIL.n269 VTAIL.n235 6.59444
R442 VTAIL.n210 VTAIL.n106 6.59444
R443 VTAIL.n166 VTAIL.n129 6.59444
R444 VTAIL.n163 VTAIL.n129 6.59444
R445 VTAIL.n373 VTAIL.n342 5.81868
R446 VTAIL.n378 VTAIL.n338 5.81868
R447 VTAIL.n420 VTAIL.n419 5.81868
R448 VTAIL.n55 VTAIL.n24 5.81868
R449 VTAIL.n60 VTAIL.n20 5.81868
R450 VTAIL.n102 VTAIL.n101 5.81868
R451 VTAIL.n314 VTAIL.n313 5.81868
R452 VTAIL.n273 VTAIL.n233 5.81868
R453 VTAIL.n268 VTAIL.n237 5.81868
R454 VTAIL.n208 VTAIL.n207 5.81868
R455 VTAIL.n167 VTAIL.n127 5.81868
R456 VTAIL.n162 VTAIL.n131 5.81868
R457 VTAIL.n370 VTAIL.n369 5.04292
R458 VTAIL.n382 VTAIL.n381 5.04292
R459 VTAIL.n416 VTAIL.n320 5.04292
R460 VTAIL.n52 VTAIL.n51 5.04292
R461 VTAIL.n64 VTAIL.n63 5.04292
R462 VTAIL.n98 VTAIL.n2 5.04292
R463 VTAIL.n310 VTAIL.n214 5.04292
R464 VTAIL.n277 VTAIL.n276 5.04292
R465 VTAIL.n265 VTAIL.n264 5.04292
R466 VTAIL.n204 VTAIL.n108 5.04292
R467 VTAIL.n171 VTAIL.n170 5.04292
R468 VTAIL.n159 VTAIL.n158 5.04292
R469 VTAIL.n366 VTAIL.n344 4.26717
R470 VTAIL.n385 VTAIL.n336 4.26717
R471 VTAIL.n415 VTAIL.n322 4.26717
R472 VTAIL.n48 VTAIL.n26 4.26717
R473 VTAIL.n67 VTAIL.n18 4.26717
R474 VTAIL.n97 VTAIL.n4 4.26717
R475 VTAIL.n309 VTAIL.n216 4.26717
R476 VTAIL.n280 VTAIL.n231 4.26717
R477 VTAIL.n261 VTAIL.n239 4.26717
R478 VTAIL.n203 VTAIL.n110 4.26717
R479 VTAIL.n174 VTAIL.n125 4.26717
R480 VTAIL.n155 VTAIL.n133 4.26717
R481 VTAIL.n355 VTAIL.n351 3.70982
R482 VTAIL.n37 VTAIL.n33 3.70982
R483 VTAIL.n250 VTAIL.n246 3.70982
R484 VTAIL.n144 VTAIL.n140 3.70982
R485 VTAIL.n365 VTAIL.n346 3.49141
R486 VTAIL.n386 VTAIL.n334 3.49141
R487 VTAIL.n412 VTAIL.n411 3.49141
R488 VTAIL.n47 VTAIL.n28 3.49141
R489 VTAIL.n68 VTAIL.n16 3.49141
R490 VTAIL.n94 VTAIL.n93 3.49141
R491 VTAIL.n306 VTAIL.n305 3.49141
R492 VTAIL.n281 VTAIL.n229 3.49141
R493 VTAIL.n260 VTAIL.n241 3.49141
R494 VTAIL.n200 VTAIL.n199 3.49141
R495 VTAIL.n175 VTAIL.n123 3.49141
R496 VTAIL.n154 VTAIL.n135 3.49141
R497 VTAIL.n362 VTAIL.n361 2.71565
R498 VTAIL.n390 VTAIL.n389 2.71565
R499 VTAIL.n408 VTAIL.n324 2.71565
R500 VTAIL.n44 VTAIL.n43 2.71565
R501 VTAIL.n72 VTAIL.n71 2.71565
R502 VTAIL.n90 VTAIL.n6 2.71565
R503 VTAIL.n302 VTAIL.n218 2.71565
R504 VTAIL.n285 VTAIL.n284 2.71565
R505 VTAIL.n257 VTAIL.n256 2.71565
R506 VTAIL.n196 VTAIL.n112 2.71565
R507 VTAIL.n179 VTAIL.n178 2.71565
R508 VTAIL.n151 VTAIL.n150 2.71565
R509 VTAIL.n358 VTAIL.n348 1.93989
R510 VTAIL.n394 VTAIL.n332 1.93989
R511 VTAIL.n407 VTAIL.n326 1.93989
R512 VTAIL.n40 VTAIL.n30 1.93989
R513 VTAIL.n76 VTAIL.n14 1.93989
R514 VTAIL.n89 VTAIL.n8 1.93989
R515 VTAIL.n301 VTAIL.n220 1.93989
R516 VTAIL.n288 VTAIL.n226 1.93989
R517 VTAIL.n253 VTAIL.n243 1.93989
R518 VTAIL.n195 VTAIL.n114 1.93989
R519 VTAIL.n182 VTAIL.n120 1.93989
R520 VTAIL.n147 VTAIL.n137 1.93989
R521 VTAIL.n357 VTAIL.n350 1.16414
R522 VTAIL.n395 VTAIL.n330 1.16414
R523 VTAIL.n404 VTAIL.n403 1.16414
R524 VTAIL.n39 VTAIL.n32 1.16414
R525 VTAIL.n77 VTAIL.n12 1.16414
R526 VTAIL.n86 VTAIL.n85 1.16414
R527 VTAIL.n298 VTAIL.n297 1.16414
R528 VTAIL.n289 VTAIL.n224 1.16414
R529 VTAIL.n252 VTAIL.n245 1.16414
R530 VTAIL.n192 VTAIL.n191 1.16414
R531 VTAIL.n183 VTAIL.n118 1.16414
R532 VTAIL.n146 VTAIL.n139 1.16414
R533 VTAIL.n317 VTAIL.n211 1.00481
R534 VTAIL VTAIL.n105 0.795759
R535 VTAIL.n354 VTAIL.n353 0.388379
R536 VTAIL.n399 VTAIL.n398 0.388379
R537 VTAIL.n400 VTAIL.n328 0.388379
R538 VTAIL.n36 VTAIL.n35 0.388379
R539 VTAIL.n81 VTAIL.n80 0.388379
R540 VTAIL.n82 VTAIL.n10 0.388379
R541 VTAIL.n294 VTAIL.n222 0.388379
R542 VTAIL.n293 VTAIL.n292 0.388379
R543 VTAIL.n249 VTAIL.n248 0.388379
R544 VTAIL.n188 VTAIL.n116 0.388379
R545 VTAIL.n187 VTAIL.n186 0.388379
R546 VTAIL.n143 VTAIL.n142 0.388379
R547 VTAIL VTAIL.n423 0.209552
R548 VTAIL.n356 VTAIL.n355 0.155672
R549 VTAIL.n356 VTAIL.n347 0.155672
R550 VTAIL.n363 VTAIL.n347 0.155672
R551 VTAIL.n364 VTAIL.n363 0.155672
R552 VTAIL.n364 VTAIL.n343 0.155672
R553 VTAIL.n371 VTAIL.n343 0.155672
R554 VTAIL.n372 VTAIL.n371 0.155672
R555 VTAIL.n372 VTAIL.n339 0.155672
R556 VTAIL.n379 VTAIL.n339 0.155672
R557 VTAIL.n380 VTAIL.n379 0.155672
R558 VTAIL.n380 VTAIL.n335 0.155672
R559 VTAIL.n387 VTAIL.n335 0.155672
R560 VTAIL.n388 VTAIL.n387 0.155672
R561 VTAIL.n388 VTAIL.n331 0.155672
R562 VTAIL.n396 VTAIL.n331 0.155672
R563 VTAIL.n397 VTAIL.n396 0.155672
R564 VTAIL.n397 VTAIL.n327 0.155672
R565 VTAIL.n405 VTAIL.n327 0.155672
R566 VTAIL.n406 VTAIL.n405 0.155672
R567 VTAIL.n406 VTAIL.n323 0.155672
R568 VTAIL.n413 VTAIL.n323 0.155672
R569 VTAIL.n414 VTAIL.n413 0.155672
R570 VTAIL.n414 VTAIL.n319 0.155672
R571 VTAIL.n421 VTAIL.n319 0.155672
R572 VTAIL.n38 VTAIL.n37 0.155672
R573 VTAIL.n38 VTAIL.n29 0.155672
R574 VTAIL.n45 VTAIL.n29 0.155672
R575 VTAIL.n46 VTAIL.n45 0.155672
R576 VTAIL.n46 VTAIL.n25 0.155672
R577 VTAIL.n53 VTAIL.n25 0.155672
R578 VTAIL.n54 VTAIL.n53 0.155672
R579 VTAIL.n54 VTAIL.n21 0.155672
R580 VTAIL.n61 VTAIL.n21 0.155672
R581 VTAIL.n62 VTAIL.n61 0.155672
R582 VTAIL.n62 VTAIL.n17 0.155672
R583 VTAIL.n69 VTAIL.n17 0.155672
R584 VTAIL.n70 VTAIL.n69 0.155672
R585 VTAIL.n70 VTAIL.n13 0.155672
R586 VTAIL.n78 VTAIL.n13 0.155672
R587 VTAIL.n79 VTAIL.n78 0.155672
R588 VTAIL.n79 VTAIL.n9 0.155672
R589 VTAIL.n87 VTAIL.n9 0.155672
R590 VTAIL.n88 VTAIL.n87 0.155672
R591 VTAIL.n88 VTAIL.n5 0.155672
R592 VTAIL.n95 VTAIL.n5 0.155672
R593 VTAIL.n96 VTAIL.n95 0.155672
R594 VTAIL.n96 VTAIL.n1 0.155672
R595 VTAIL.n103 VTAIL.n1 0.155672
R596 VTAIL.n315 VTAIL.n213 0.155672
R597 VTAIL.n308 VTAIL.n213 0.155672
R598 VTAIL.n308 VTAIL.n307 0.155672
R599 VTAIL.n307 VTAIL.n217 0.155672
R600 VTAIL.n300 VTAIL.n217 0.155672
R601 VTAIL.n300 VTAIL.n299 0.155672
R602 VTAIL.n299 VTAIL.n221 0.155672
R603 VTAIL.n291 VTAIL.n221 0.155672
R604 VTAIL.n291 VTAIL.n290 0.155672
R605 VTAIL.n290 VTAIL.n225 0.155672
R606 VTAIL.n283 VTAIL.n225 0.155672
R607 VTAIL.n283 VTAIL.n282 0.155672
R608 VTAIL.n282 VTAIL.n230 0.155672
R609 VTAIL.n275 VTAIL.n230 0.155672
R610 VTAIL.n275 VTAIL.n274 0.155672
R611 VTAIL.n274 VTAIL.n234 0.155672
R612 VTAIL.n267 VTAIL.n234 0.155672
R613 VTAIL.n267 VTAIL.n266 0.155672
R614 VTAIL.n266 VTAIL.n238 0.155672
R615 VTAIL.n259 VTAIL.n238 0.155672
R616 VTAIL.n259 VTAIL.n258 0.155672
R617 VTAIL.n258 VTAIL.n242 0.155672
R618 VTAIL.n251 VTAIL.n242 0.155672
R619 VTAIL.n251 VTAIL.n250 0.155672
R620 VTAIL.n209 VTAIL.n107 0.155672
R621 VTAIL.n202 VTAIL.n107 0.155672
R622 VTAIL.n202 VTAIL.n201 0.155672
R623 VTAIL.n201 VTAIL.n111 0.155672
R624 VTAIL.n194 VTAIL.n111 0.155672
R625 VTAIL.n194 VTAIL.n193 0.155672
R626 VTAIL.n193 VTAIL.n115 0.155672
R627 VTAIL.n185 VTAIL.n115 0.155672
R628 VTAIL.n185 VTAIL.n184 0.155672
R629 VTAIL.n184 VTAIL.n119 0.155672
R630 VTAIL.n177 VTAIL.n119 0.155672
R631 VTAIL.n177 VTAIL.n176 0.155672
R632 VTAIL.n176 VTAIL.n124 0.155672
R633 VTAIL.n169 VTAIL.n124 0.155672
R634 VTAIL.n169 VTAIL.n168 0.155672
R635 VTAIL.n168 VTAIL.n128 0.155672
R636 VTAIL.n161 VTAIL.n128 0.155672
R637 VTAIL.n161 VTAIL.n160 0.155672
R638 VTAIL.n160 VTAIL.n132 0.155672
R639 VTAIL.n153 VTAIL.n132 0.155672
R640 VTAIL.n153 VTAIL.n152 0.155672
R641 VTAIL.n152 VTAIL.n136 0.155672
R642 VTAIL.n145 VTAIL.n136 0.155672
R643 VTAIL.n145 VTAIL.n144 0.155672
R644 VDD1.n100 VDD1.n0 756.745
R645 VDD1.n205 VDD1.n105 756.745
R646 VDD1.n101 VDD1.n100 585
R647 VDD1.n99 VDD1.n98 585
R648 VDD1.n4 VDD1.n3 585
R649 VDD1.n93 VDD1.n92 585
R650 VDD1.n91 VDD1.n90 585
R651 VDD1.n8 VDD1.n7 585
R652 VDD1.n85 VDD1.n84 585
R653 VDD1.n83 VDD1.n82 585
R654 VDD1.n81 VDD1.n11 585
R655 VDD1.n15 VDD1.n12 585
R656 VDD1.n76 VDD1.n75 585
R657 VDD1.n74 VDD1.n73 585
R658 VDD1.n17 VDD1.n16 585
R659 VDD1.n68 VDD1.n67 585
R660 VDD1.n66 VDD1.n65 585
R661 VDD1.n21 VDD1.n20 585
R662 VDD1.n60 VDD1.n59 585
R663 VDD1.n58 VDD1.n57 585
R664 VDD1.n25 VDD1.n24 585
R665 VDD1.n52 VDD1.n51 585
R666 VDD1.n50 VDD1.n49 585
R667 VDD1.n29 VDD1.n28 585
R668 VDD1.n44 VDD1.n43 585
R669 VDD1.n42 VDD1.n41 585
R670 VDD1.n33 VDD1.n32 585
R671 VDD1.n36 VDD1.n35 585
R672 VDD1.n140 VDD1.n139 585
R673 VDD1.n137 VDD1.n136 585
R674 VDD1.n146 VDD1.n145 585
R675 VDD1.n148 VDD1.n147 585
R676 VDD1.n133 VDD1.n132 585
R677 VDD1.n154 VDD1.n153 585
R678 VDD1.n156 VDD1.n155 585
R679 VDD1.n129 VDD1.n128 585
R680 VDD1.n162 VDD1.n161 585
R681 VDD1.n164 VDD1.n163 585
R682 VDD1.n125 VDD1.n124 585
R683 VDD1.n170 VDD1.n169 585
R684 VDD1.n172 VDD1.n171 585
R685 VDD1.n121 VDD1.n120 585
R686 VDD1.n178 VDD1.n177 585
R687 VDD1.n181 VDD1.n180 585
R688 VDD1.n179 VDD1.n117 585
R689 VDD1.n186 VDD1.n116 585
R690 VDD1.n188 VDD1.n187 585
R691 VDD1.n190 VDD1.n189 585
R692 VDD1.n113 VDD1.n112 585
R693 VDD1.n196 VDD1.n195 585
R694 VDD1.n198 VDD1.n197 585
R695 VDD1.n109 VDD1.n108 585
R696 VDD1.n204 VDD1.n203 585
R697 VDD1.n206 VDD1.n205 585
R698 VDD1.t1 VDD1.n34 327.466
R699 VDD1.t0 VDD1.n138 327.466
R700 VDD1.n100 VDD1.n99 171.744
R701 VDD1.n99 VDD1.n3 171.744
R702 VDD1.n92 VDD1.n3 171.744
R703 VDD1.n92 VDD1.n91 171.744
R704 VDD1.n91 VDD1.n7 171.744
R705 VDD1.n84 VDD1.n7 171.744
R706 VDD1.n84 VDD1.n83 171.744
R707 VDD1.n83 VDD1.n11 171.744
R708 VDD1.n15 VDD1.n11 171.744
R709 VDD1.n75 VDD1.n15 171.744
R710 VDD1.n75 VDD1.n74 171.744
R711 VDD1.n74 VDD1.n16 171.744
R712 VDD1.n67 VDD1.n16 171.744
R713 VDD1.n67 VDD1.n66 171.744
R714 VDD1.n66 VDD1.n20 171.744
R715 VDD1.n59 VDD1.n20 171.744
R716 VDD1.n59 VDD1.n58 171.744
R717 VDD1.n58 VDD1.n24 171.744
R718 VDD1.n51 VDD1.n24 171.744
R719 VDD1.n51 VDD1.n50 171.744
R720 VDD1.n50 VDD1.n28 171.744
R721 VDD1.n43 VDD1.n28 171.744
R722 VDD1.n43 VDD1.n42 171.744
R723 VDD1.n42 VDD1.n32 171.744
R724 VDD1.n35 VDD1.n32 171.744
R725 VDD1.n139 VDD1.n136 171.744
R726 VDD1.n146 VDD1.n136 171.744
R727 VDD1.n147 VDD1.n146 171.744
R728 VDD1.n147 VDD1.n132 171.744
R729 VDD1.n154 VDD1.n132 171.744
R730 VDD1.n155 VDD1.n154 171.744
R731 VDD1.n155 VDD1.n128 171.744
R732 VDD1.n162 VDD1.n128 171.744
R733 VDD1.n163 VDD1.n162 171.744
R734 VDD1.n163 VDD1.n124 171.744
R735 VDD1.n170 VDD1.n124 171.744
R736 VDD1.n171 VDD1.n170 171.744
R737 VDD1.n171 VDD1.n120 171.744
R738 VDD1.n178 VDD1.n120 171.744
R739 VDD1.n180 VDD1.n178 171.744
R740 VDD1.n180 VDD1.n179 171.744
R741 VDD1.n179 VDD1.n116 171.744
R742 VDD1.n188 VDD1.n116 171.744
R743 VDD1.n189 VDD1.n188 171.744
R744 VDD1.n189 VDD1.n112 171.744
R745 VDD1.n196 VDD1.n112 171.744
R746 VDD1.n197 VDD1.n196 171.744
R747 VDD1.n197 VDD1.n108 171.744
R748 VDD1.n204 VDD1.n108 171.744
R749 VDD1.n205 VDD1.n204 171.744
R750 VDD1 VDD1.n209 92.6259
R751 VDD1.n35 VDD1.t1 85.8723
R752 VDD1.n139 VDD1.t0 85.8723
R753 VDD1 VDD1.n104 49.9653
R754 VDD1.n36 VDD1.n34 16.3895
R755 VDD1.n140 VDD1.n138 16.3895
R756 VDD1.n82 VDD1.n81 13.1884
R757 VDD1.n187 VDD1.n186 13.1884
R758 VDD1.n85 VDD1.n10 12.8005
R759 VDD1.n80 VDD1.n12 12.8005
R760 VDD1.n37 VDD1.n33 12.8005
R761 VDD1.n141 VDD1.n137 12.8005
R762 VDD1.n185 VDD1.n117 12.8005
R763 VDD1.n190 VDD1.n115 12.8005
R764 VDD1.n86 VDD1.n8 12.0247
R765 VDD1.n77 VDD1.n76 12.0247
R766 VDD1.n41 VDD1.n40 12.0247
R767 VDD1.n145 VDD1.n144 12.0247
R768 VDD1.n182 VDD1.n181 12.0247
R769 VDD1.n191 VDD1.n113 12.0247
R770 VDD1.n90 VDD1.n89 11.249
R771 VDD1.n73 VDD1.n14 11.249
R772 VDD1.n44 VDD1.n31 11.249
R773 VDD1.n148 VDD1.n135 11.249
R774 VDD1.n177 VDD1.n119 11.249
R775 VDD1.n195 VDD1.n194 11.249
R776 VDD1.n93 VDD1.n6 10.4732
R777 VDD1.n72 VDD1.n17 10.4732
R778 VDD1.n45 VDD1.n29 10.4732
R779 VDD1.n149 VDD1.n133 10.4732
R780 VDD1.n176 VDD1.n121 10.4732
R781 VDD1.n198 VDD1.n111 10.4732
R782 VDD1.n94 VDD1.n4 9.69747
R783 VDD1.n69 VDD1.n68 9.69747
R784 VDD1.n49 VDD1.n48 9.69747
R785 VDD1.n153 VDD1.n152 9.69747
R786 VDD1.n173 VDD1.n172 9.69747
R787 VDD1.n199 VDD1.n109 9.69747
R788 VDD1.n104 VDD1.n103 9.45567
R789 VDD1.n209 VDD1.n208 9.45567
R790 VDD1.n62 VDD1.n61 9.3005
R791 VDD1.n64 VDD1.n63 9.3005
R792 VDD1.n19 VDD1.n18 9.3005
R793 VDD1.n70 VDD1.n69 9.3005
R794 VDD1.n72 VDD1.n71 9.3005
R795 VDD1.n14 VDD1.n13 9.3005
R796 VDD1.n78 VDD1.n77 9.3005
R797 VDD1.n80 VDD1.n79 9.3005
R798 VDD1.n103 VDD1.n102 9.3005
R799 VDD1.n2 VDD1.n1 9.3005
R800 VDD1.n97 VDD1.n96 9.3005
R801 VDD1.n95 VDD1.n94 9.3005
R802 VDD1.n6 VDD1.n5 9.3005
R803 VDD1.n89 VDD1.n88 9.3005
R804 VDD1.n87 VDD1.n86 9.3005
R805 VDD1.n10 VDD1.n9 9.3005
R806 VDD1.n23 VDD1.n22 9.3005
R807 VDD1.n56 VDD1.n55 9.3005
R808 VDD1.n54 VDD1.n53 9.3005
R809 VDD1.n27 VDD1.n26 9.3005
R810 VDD1.n48 VDD1.n47 9.3005
R811 VDD1.n46 VDD1.n45 9.3005
R812 VDD1.n31 VDD1.n30 9.3005
R813 VDD1.n40 VDD1.n39 9.3005
R814 VDD1.n38 VDD1.n37 9.3005
R815 VDD1.n107 VDD1.n106 9.3005
R816 VDD1.n202 VDD1.n201 9.3005
R817 VDD1.n200 VDD1.n199 9.3005
R818 VDD1.n111 VDD1.n110 9.3005
R819 VDD1.n194 VDD1.n193 9.3005
R820 VDD1.n192 VDD1.n191 9.3005
R821 VDD1.n115 VDD1.n114 9.3005
R822 VDD1.n160 VDD1.n159 9.3005
R823 VDD1.n158 VDD1.n157 9.3005
R824 VDD1.n131 VDD1.n130 9.3005
R825 VDD1.n152 VDD1.n151 9.3005
R826 VDD1.n150 VDD1.n149 9.3005
R827 VDD1.n135 VDD1.n134 9.3005
R828 VDD1.n144 VDD1.n143 9.3005
R829 VDD1.n142 VDD1.n141 9.3005
R830 VDD1.n127 VDD1.n126 9.3005
R831 VDD1.n166 VDD1.n165 9.3005
R832 VDD1.n168 VDD1.n167 9.3005
R833 VDD1.n123 VDD1.n122 9.3005
R834 VDD1.n174 VDD1.n173 9.3005
R835 VDD1.n176 VDD1.n175 9.3005
R836 VDD1.n119 VDD1.n118 9.3005
R837 VDD1.n183 VDD1.n182 9.3005
R838 VDD1.n185 VDD1.n184 9.3005
R839 VDD1.n208 VDD1.n207 9.3005
R840 VDD1.n98 VDD1.n97 8.92171
R841 VDD1.n65 VDD1.n19 8.92171
R842 VDD1.n52 VDD1.n27 8.92171
R843 VDD1.n156 VDD1.n131 8.92171
R844 VDD1.n169 VDD1.n123 8.92171
R845 VDD1.n203 VDD1.n202 8.92171
R846 VDD1.n101 VDD1.n2 8.14595
R847 VDD1.n64 VDD1.n21 8.14595
R848 VDD1.n53 VDD1.n25 8.14595
R849 VDD1.n157 VDD1.n129 8.14595
R850 VDD1.n168 VDD1.n125 8.14595
R851 VDD1.n206 VDD1.n107 8.14595
R852 VDD1.n102 VDD1.n0 7.3702
R853 VDD1.n61 VDD1.n60 7.3702
R854 VDD1.n57 VDD1.n56 7.3702
R855 VDD1.n161 VDD1.n160 7.3702
R856 VDD1.n165 VDD1.n164 7.3702
R857 VDD1.n207 VDD1.n105 7.3702
R858 VDD1.n104 VDD1.n0 6.59444
R859 VDD1.n60 VDD1.n23 6.59444
R860 VDD1.n57 VDD1.n23 6.59444
R861 VDD1.n161 VDD1.n127 6.59444
R862 VDD1.n164 VDD1.n127 6.59444
R863 VDD1.n209 VDD1.n105 6.59444
R864 VDD1.n102 VDD1.n101 5.81868
R865 VDD1.n61 VDD1.n21 5.81868
R866 VDD1.n56 VDD1.n25 5.81868
R867 VDD1.n160 VDD1.n129 5.81868
R868 VDD1.n165 VDD1.n125 5.81868
R869 VDD1.n207 VDD1.n206 5.81868
R870 VDD1.n98 VDD1.n2 5.04292
R871 VDD1.n65 VDD1.n64 5.04292
R872 VDD1.n53 VDD1.n52 5.04292
R873 VDD1.n157 VDD1.n156 5.04292
R874 VDD1.n169 VDD1.n168 5.04292
R875 VDD1.n203 VDD1.n107 5.04292
R876 VDD1.n97 VDD1.n4 4.26717
R877 VDD1.n68 VDD1.n19 4.26717
R878 VDD1.n49 VDD1.n27 4.26717
R879 VDD1.n153 VDD1.n131 4.26717
R880 VDD1.n172 VDD1.n123 4.26717
R881 VDD1.n202 VDD1.n109 4.26717
R882 VDD1.n38 VDD1.n34 3.70982
R883 VDD1.n142 VDD1.n138 3.70982
R884 VDD1.n94 VDD1.n93 3.49141