* NGSPICE file created from opamp_sample_0005.ext - technology: sky130A

.subckt opamp_sample_0005 GND VOUT VDD VN VP CS_BIAS DIFFPAIR_BIAS
X0 GND.t201 GND.t199 GND.t200 GND.t121 sky130_fd_pr__nfet_01v8 ad=1.0569 pd=6.2 as=0 ps=0 w=2.71 l=2.37
X1 GND.t76 CS_BIAS.t20 VOUT.t29 GND.t62 sky130_fd_pr__nfet_01v8 ad=0.44715 pd=3.04 as=0.44715 ps=3.04 w=2.71 l=2.37
X2 GND.t198 GND.t196 GND.t197 GND.t99 sky130_fd_pr__nfet_01v8 ad=1.0569 pd=6.2 as=0 ps=0 w=2.71 l=2.37
X3 VOUT.t37 GND.t214 VDD.t141 VDD.t98 sky130_fd_pr__pfet_01v8 ad=1.5561 pd=8.76 as=1.5561 ps=8.76 w=3.99 l=3.26
X4 VN.t3 GND.t193 GND.t195 GND.t194 sky130_fd_pr__nfet_01v8 ad=0.165 pd=1.33 as=0.165 ps=1.33 w=1 l=0.5
X5 VDD.t93 VDD.t91 VDD.t92 VDD.t28 sky130_fd_pr__pfet_01v8 ad=1.5561 pd=8.76 as=0 ps=0 w=3.99 l=3.26
X6 GND.t67 CS_BIAS.t21 VOUT.t28 GND.t45 sky130_fd_pr__nfet_01v8 ad=0.44715 pd=3.04 as=0.44715 ps=3.04 w=2.71 l=2.37
X7 VOUT.t27 CS_BIAS.t22 GND.t213 GND.t52 sky130_fd_pr__nfet_01v8 ad=0.44715 pd=3.04 as=1.0569 ps=6.2 w=2.71 l=2.37
X8 GND.t29 CS_BIAS.t23 VOUT.t26 GND.t28 sky130_fd_pr__nfet_01v8 ad=0.44715 pd=3.04 as=0.44715 ps=3.04 w=2.71 l=2.37
X9 VOUT.t25 CS_BIAS.t24 GND.t47 GND.t10 sky130_fd_pr__nfet_01v8 ad=1.0569 pd=6.2 as=0.44715 ps=3.04 w=2.71 l=2.37
X10 VOUT.t24 CS_BIAS.t25 GND.t27 GND.t12 sky130_fd_pr__nfet_01v8 ad=0.44715 pd=3.04 as=0.44715 ps=3.04 w=2.71 l=2.37
X11 GND.t192 GND.t189 GND.t191 GND.t190 sky130_fd_pr__nfet_01v8 ad=1.6146 pd=9.06 as=0 ps=0 w=4.14 l=4.06
X12 GND.t188 GND.t186 GND.t187 GND.t121 sky130_fd_pr__nfet_01v8 ad=1.0569 pd=6.2 as=0 ps=0 w=2.71 l=2.37
X13 a_n12854_10929# a_n12854_10929# a_n12854_10929# VDD.t1 sky130_fd_pr__pfet_01v8 ad=0.8853 pd=5.32 as=1.7706 ps=10.64 w=2.27 l=5.93
X14 VOUT.t23 CS_BIAS.t26 GND.t1 GND.t0 sky130_fd_pr__nfet_01v8 ad=0.44715 pd=3.04 as=0.44715 ps=3.04 w=2.71 l=2.37
X15 GND.t75 CS_BIAS.t18 CS_BIAS.t19 GND.t62 sky130_fd_pr__nfet_01v8 ad=0.44715 pd=3.04 as=0.44715 ps=3.04 w=2.71 l=2.37
X16 a_n4580_9541.t12 GND.t178 GND.t179 VDD.t123 sky130_fd_pr__pfet_01v8 ad=0.8853 pd=5.32 as=0.37455 ps=2.6 w=2.27 l=5.93
X17 a_n7464_n776.t9 DIFFPAIR_BIAS.t10 GND.t83 GND.t82 sky130_fd_pr__nfet_01v8 ad=1.6146 pd=9.06 as=1.6146 ps=9.06 w=4.14 l=4.06
X18 VOUT.t40 a_n4580_9541.t0 sky130_fd_pr__cap_mim_m3_1 l=10.72 w=5.27
X19 VDD.t140 GND.t215 a_n4580_9541.t8 VDD.t139 sky130_fd_pr__pfet_01v8 ad=0.37455 pd=2.6 as=0.8853 ps=5.32 w=2.27 l=5.93
X20 VOUT.t41 a_n4580_9541.t0 sky130_fd_pr__cap_mim_m3_1 l=10.72 w=5.27
X21 GND.t66 CS_BIAS.t27 VOUT.t22 GND.t62 sky130_fd_pr__nfet_01v8 ad=0.44715 pd=3.04 as=0.44715 ps=3.04 w=2.71 l=2.37
X22 GND.t32 VN.t4 a_n7464_n776.t24 GND.t22 sky130_fd_pr__nfet_01v8 ad=1.18305 pd=7.5 as=2.7963 ps=15.12 w=7.17 l=6.98
X23 VOUT.t21 CS_BIAS.t28 GND.t204 GND.t52 sky130_fd_pr__nfet_01v8 ad=0.44715 pd=3.04 as=1.0569 ps=6.2 w=2.71 l=2.37
X24 VOUT.t31 GND.t216 VDD.t137 VDD.t126 sky130_fd_pr__pfet_01v8 ad=1.5561 pd=8.76 as=1.5561 ps=8.76 w=3.99 l=3.26
X25 VOUT.t32 GND.t217 VDD.t138 VDD.t126 sky130_fd_pr__pfet_01v8 ad=1.5561 pd=8.76 as=1.5561 ps=8.76 w=3.99 l=3.26
X26 VDD.t136 GND.t218 a_n11384_10929.t7 VDD.t135 sky130_fd_pr__pfet_01v8 ad=0.37455 pd=2.6 as=0.8853 ps=5.32 w=2.27 l=5.93
X27 VDD.t90 VDD.t88 VDD.t89 VDD.t61 sky130_fd_pr__pfet_01v8 ad=0.8853 pd=5.32 as=0 ps=0 w=2.27 l=5.93
X28 a_n7464_n776.t23 VN.t5 GND.t56 GND.t33 sky130_fd_pr__nfet_01v8 ad=1.18305 pd=7.5 as=1.18305 ps=7.5 w=7.17 l=6.98
X29 VOUT.t30 GND.t219 VDD.t134 VDD.t126 sky130_fd_pr__pfet_01v8 ad=1.5561 pd=8.76 as=1.5561 ps=8.76 w=3.99 l=3.26
X30 GND.t42 VN.t6 a_n7464_n776.t22 GND.t4 sky130_fd_pr__nfet_01v8 ad=2.7963 pd=15.12 as=1.18305 ps=7.5 w=7.17 l=6.98
X31 GND.t185 GND.t183 GND.t184 GND.t125 sky130_fd_pr__nfet_01v8 ad=1.0569 pd=6.2 as=0 ps=0 w=2.71 l=2.37
X32 GND.t211 VN.t7 a_n7464_n776.t21 GND.t84 sky130_fd_pr__nfet_01v8 ad=1.18305 pd=7.5 as=1.18305 ps=7.5 w=7.17 l=6.98
X33 GND.t44 VN.t8 a_n7464_n776.t20 GND.t43 sky130_fd_pr__nfet_01v8 ad=1.18305 pd=7.5 as=2.7963 ps=15.12 w=7.17 l=6.98
X34 a_n7464_n776.t19 VN.t9 GND.t55 GND.t54 sky130_fd_pr__nfet_01v8 ad=1.18305 pd=7.5 as=1.18305 ps=7.5 w=7.17 l=6.98
X35 GND.t182 GND.t180 GND.t181 GND.t121 sky130_fd_pr__nfet_01v8 ad=1.0569 pd=6.2 as=0 ps=0 w=2.71 l=2.37
X36 VN.t2 GND.t175 GND.t177 GND.t176 sky130_fd_pr__nfet_01v8 ad=0.39 pd=2.78 as=0.165 ps=1.33 w=1 l=0.5
X37 CS_BIAS.t17 CS_BIAS.t16 GND.t57 GND.t39 sky130_fd_pr__nfet_01v8 ad=0.44715 pd=3.04 as=1.0569 ps=6.2 w=2.71 l=2.37
X38 VOUT.t20 CS_BIAS.t29 GND.t11 GND.t10 sky130_fd_pr__nfet_01v8 ad=1.0569 pd=6.2 as=0.44715 ps=3.04 w=2.71 l=2.37
X39 VOUT.t35 GND.t220 VDD.t133 VDD.t98 sky130_fd_pr__pfet_01v8 ad=1.5561 pd=8.76 as=1.5561 ps=8.76 w=3.99 l=3.26
X40 VP.t3 GND.t172 GND.t174 GND.t173 sky130_fd_pr__nfet_01v8 ad=0.165 pd=1.33 as=0.165 ps=1.33 w=1 l=0.5
X41 VDD.t87 VDD.t85 VDD.t86 VDD.t28 sky130_fd_pr__pfet_01v8 ad=1.5561 pd=8.76 as=0 ps=0 w=3.99 l=3.26
X42 GND.t171 GND.t169 GND.t170 GND.t103 sky130_fd_pr__nfet_01v8 ad=2.7963 pd=15.12 as=0 ps=0 w=7.17 l=6.98
X43 VOUT.t42 a_n4580_9541.t0 sky130_fd_pr__cap_mim_m3_1 l=10.72 w=5.27
X44 CS_BIAS.t15 CS_BIAS.t14 GND.t53 GND.t52 sky130_fd_pr__nfet_01v8 ad=0.44715 pd=3.04 as=1.0569 ps=6.2 w=2.71 l=2.37
X45 VDD.t84 VDD.t82 VDD.t83 VDD.t48 sky130_fd_pr__pfet_01v8 ad=1.5561 pd=8.76 as=0 ps=0 w=3.99 l=3.26
X46 VOUT.t43 a_n4580_9541.t0 sky130_fd_pr__cap_mim_m3_1 l=10.72 w=5.27
X47 GND.t168 GND.t166 GND.t167 GND.t99 sky130_fd_pr__nfet_01v8 ad=1.0569 pd=6.2 as=0 ps=0 w=2.71 l=2.37
X48 VDD.t81 VDD.t79 VDD.t80 VDD.t48 sky130_fd_pr__pfet_01v8 ad=1.5561 pd=8.76 as=0 ps=0 w=3.99 l=3.26
X49 VDD.t78 VDD.t76 VDD.t77 VDD.t48 sky130_fd_pr__pfet_01v8 ad=1.5561 pd=8.76 as=0 ps=0 w=3.99 l=3.26
X50 DIFFPAIR_BIAS.t9 DIFFPAIR_BIAS.t8 GND.t59 GND.t58 sky130_fd_pr__nfet_01v8 ad=1.6146 pd=9.06 as=1.6146 ps=9.06 w=4.14 l=4.06
X51 VOUT.t34 GND.t221 VDD.t132 VDD.t126 sky130_fd_pr__pfet_01v8 ad=1.5561 pd=8.76 as=1.5561 ps=8.76 w=3.99 l=3.26
X52 VDD.t75 VDD.t73 VDD.t74 VDD.t48 sky130_fd_pr__pfet_01v8 ad=1.5561 pd=8.76 as=0 ps=0 w=3.99 l=3.26
X53 a_n7464_n776.t8 DIFFPAIR_BIAS.t11 GND.t81 GND.t80 sky130_fd_pr__nfet_01v8 ad=1.6146 pd=9.06 as=1.6146 ps=9.06 w=4.14 l=4.06
X54 GND.t165 GND.t163 GND.t164 GND.t111 sky130_fd_pr__nfet_01v8 ad=1.0569 pd=6.2 as=0 ps=0 w=2.71 l=2.37
X55 VOUT.t19 CS_BIAS.t30 GND.t15 GND.t14 sky130_fd_pr__nfet_01v8 ad=1.0569 pd=6.2 as=0.44715 ps=3.04 w=2.71 l=2.37
X56 VDD.t72 VDD.t70 VDD.t71 VDD.t44 sky130_fd_pr__pfet_01v8 ad=0.8853 pd=5.32 as=0 ps=0 w=2.27 l=5.93
X57 a_n11384_10929.t11 GND.t161 GND.t162 VDD.t120 sky130_fd_pr__pfet_01v8 ad=0.37455 pd=2.6 as=0.8853 ps=5.32 w=2.27 l=5.93
X58 VDD.t69 VDD.t67 VDD.t68 VDD.t7 sky130_fd_pr__pfet_01v8 ad=1.5561 pd=8.76 as=0 ps=0 w=3.99 l=3.26
X59 VDD.t66 VDD.t64 VDD.t65 VDD.t11 sky130_fd_pr__pfet_01v8 ad=0.8853 pd=5.32 as=0 ps=0 w=2.27 l=5.93
X60 VOUT.t18 CS_BIAS.t31 GND.t69 GND.t14 sky130_fd_pr__nfet_01v8 ad=1.0569 pd=6.2 as=0.44715 ps=3.04 w=2.71 l=2.37
X61 VOUT.t17 CS_BIAS.t32 GND.t25 GND.t0 sky130_fd_pr__nfet_01v8 ad=0.44715 pd=3.04 as=0.44715 ps=3.04 w=2.71 l=2.37
X62 GND.t160 GND.t158 GND.t159 GND.t111 sky130_fd_pr__nfet_01v8 ad=1.0569 pd=6.2 as=0 ps=0 w=2.71 l=2.37
X63 GND.t68 CS_BIAS.t33 VOUT.t16 GND.t45 sky130_fd_pr__nfet_01v8 ad=0.44715 pd=3.04 as=0.44715 ps=3.04 w=2.71 l=2.37
X64 VP.t2 GND.t155 GND.t157 GND.t156 sky130_fd_pr__nfet_01v8 ad=0.39 pd=2.78 as=0.165 ps=1.33 w=1 l=0.5
X65 a_n7464_n776.t7 DIFFPAIR_BIAS.t12 GND.t3 GND.t2 sky130_fd_pr__nfet_01v8 ad=1.6146 pd=9.06 as=1.6146 ps=9.06 w=4.14 l=4.06
X66 GND.t154 GND.t152 GND.t153 GND.t125 sky130_fd_pr__nfet_01v8 ad=1.0569 pd=6.2 as=0 ps=0 w=2.71 l=2.37
X67 GND.t87 VP.t4 a_n7464_n776.t14 GND.t37 sky130_fd_pr__nfet_01v8 ad=1.18305 pd=7.5 as=1.18305 ps=7.5 w=7.17 l=6.98
X68 a_n7464_n776.t13 VP.t5 GND.t86 GND.t35 sky130_fd_pr__nfet_01v8 ad=1.18305 pd=7.5 as=1.18305 ps=7.5 w=7.17 l=6.98
X69 VDD.t63 VDD.t60 VDD.t62 VDD.t61 sky130_fd_pr__pfet_01v8 ad=0.8853 pd=5.32 as=0 ps=0 w=2.27 l=5.93
X70 VOUT.t15 CS_BIAS.t34 GND.t40 GND.t39 sky130_fd_pr__nfet_01v8 ad=0.44715 pd=3.04 as=1.0569 ps=6.2 w=2.71 l=2.37
X71 GND.t73 CS_BIAS.t35 VOUT.t14 GND.t64 sky130_fd_pr__nfet_01v8 ad=0.44715 pd=3.04 as=0.44715 ps=3.04 w=2.71 l=2.37
X72 GND.t70 CS_BIAS.t12 CS_BIAS.t13 GND.t64 sky130_fd_pr__nfet_01v8 ad=0.44715 pd=3.04 as=0.44715 ps=3.04 w=2.71 l=2.37
X73 GND.t206 VN.t10 a_n7464_n776.t18 GND.t8 sky130_fd_pr__nfet_01v8 ad=2.7963 pd=15.12 as=1.18305 ps=7.5 w=7.17 l=6.98
X74 VDD.t59 VDD.t57 VDD.t58 VDD.t3 sky130_fd_pr__pfet_01v8 ad=1.5561 pd=8.76 as=0 ps=0 w=3.99 l=3.26
X75 a_n11384_10929.t6 GND.t222 VDD.t131 VDD.t130 sky130_fd_pr__pfet_01v8 ad=0.8853 pd=5.32 as=0.37455 ps=2.6 w=2.27 l=5.93
X76 VDD.t56 VDD.t54 VDD.t55 VDD.t3 sky130_fd_pr__pfet_01v8 ad=1.5561 pd=8.76 as=0 ps=0 w=3.99 l=3.26
X77 CS_BIAS.t11 CS_BIAS.t10 GND.t212 GND.t12 sky130_fd_pr__nfet_01v8 ad=0.44715 pd=3.04 as=0.44715 ps=3.04 w=2.71 l=2.37
X78 GND.t151 GND.t149 GND.t150 GND.t99 sky130_fd_pr__nfet_01v8 ad=1.0569 pd=6.2 as=0 ps=0 w=2.71 l=2.37
X79 GND.t97 GND.t96 a_n4580_9541.t11 VDD.t119 sky130_fd_pr__pfet_01v8 ad=0.37455 pd=2.6 as=0.8853 ps=5.32 w=2.27 l=5.93
X80 VDD.t53 VDD.t51 VDD.t52 VDD.t3 sky130_fd_pr__pfet_01v8 ad=1.5561 pd=8.76 as=0 ps=0 w=3.99 l=3.26
X81 GND.t95 GND.t94 a_n11384_10929.t10 VDD.t102 sky130_fd_pr__pfet_01v8 ad=0.8853 pd=5.32 as=0.37455 ps=2.6 w=2.27 l=5.93
X82 GND.t148 GND.t146 GND.t147 GND.t111 sky130_fd_pr__nfet_01v8 ad=1.0569 pd=6.2 as=0 ps=0 w=2.71 l=2.37
X83 VDD.t50 VDD.t47 VDD.t49 VDD.t48 sky130_fd_pr__pfet_01v8 ad=1.5561 pd=8.76 as=0 ps=0 w=3.99 l=3.26
X84 VDD.t129 GND.t223 a_n4580_9541.t7 VDD.t128 sky130_fd_pr__pfet_01v8 ad=0.37455 pd=2.6 as=0.8853 ps=5.32 w=2.27 l=5.93
X85 VOUT.t38 GND.t224 VDD.t127 VDD.t126 sky130_fd_pr__pfet_01v8 ad=1.5561 pd=8.76 as=1.5561 ps=8.76 w=3.99 l=3.26
X86 CS_BIAS.t9 CS_BIAS.t8 GND.t207 GND.t10 sky130_fd_pr__nfet_01v8 ad=1.0569 pd=6.2 as=0.44715 ps=3.04 w=2.71 l=2.37
X87 VOUT.t13 CS_BIAS.t36 GND.t13 GND.t12 sky130_fd_pr__nfet_01v8 ad=0.44715 pd=3.04 as=0.44715 ps=3.04 w=2.71 l=2.37
X88 VOUT.t12 CS_BIAS.t37 GND.t74 GND.t12 sky130_fd_pr__nfet_01v8 ad=0.44715 pd=3.04 as=0.44715 ps=3.04 w=2.71 l=2.37
X89 GND.t41 CS_BIAS.t38 VOUT.t11 GND.t28 sky130_fd_pr__nfet_01v8 ad=0.44715 pd=3.04 as=0.44715 ps=3.04 w=2.71 l=2.37
X90 GND.t145 GND.t143 GND.t144 GND.t125 sky130_fd_pr__nfet_01v8 ad=1.0569 pd=6.2 as=0 ps=0 w=2.71 l=2.37
X91 VDD.t46 VDD.t43 VDD.t45 VDD.t44 sky130_fd_pr__pfet_01v8 ad=0.8853 pd=5.32 as=0 ps=0 w=2.27 l=5.93
X92 VDD.t125 GND.t225 a_n11384_10929.t5 VDD.t124 sky130_fd_pr__pfet_01v8 ad=0.37455 pd=2.6 as=0.37455 ps=2.6 w=2.27 l=5.93
X93 DIFFPAIR_BIAS.t7 DIFFPAIR_BIAS.t6 GND.t21 GND.t20 sky130_fd_pr__nfet_01v8 ad=1.6146 pd=9.06 as=1.6146 ps=9.06 w=4.14 l=4.06
X94 VDD.t42 VDD.t40 VDD.t41 VDD.t7 sky130_fd_pr__pfet_01v8 ad=1.5561 pd=8.76 as=0 ps=0 w=3.99 l=3.26
X95 GND.t72 CS_BIAS.t39 VOUT.t10 GND.t28 sky130_fd_pr__nfet_01v8 ad=0.44715 pd=3.04 as=0.44715 ps=3.04 w=2.71 l=2.37
X96 GND.t142 GND.t141 a_n11384_10929.t9 VDD.t123 sky130_fd_pr__pfet_01v8 ad=0.8853 pd=5.32 as=0.37455 ps=2.6 w=2.27 l=5.93
X97 VDD.t39 VDD.t37 VDD.t38 VDD.t21 sky130_fd_pr__pfet_01v8 ad=0.8853 pd=5.32 as=0 ps=0 w=2.27 l=5.93
X98 VOUT.t9 CS_BIAS.t40 GND.t24 GND.t10 sky130_fd_pr__nfet_01v8 ad=1.0569 pd=6.2 as=0.44715 ps=3.04 w=2.71 l=2.37
X99 a_n7464_n776.t17 VN.t11 GND.t31 GND.t16 sky130_fd_pr__nfet_01v8 ad=1.18305 pd=7.5 as=1.18305 ps=7.5 w=7.17 l=6.98
X100 GND.t85 VP.t6 a_n7464_n776.t12 GND.t84 sky130_fd_pr__nfet_01v8 ad=1.18305 pd=7.5 as=1.18305 ps=7.5 w=7.17 l=6.98
X101 VOUT.t44 a_n4580_9541.t0 sky130_fd_pr__cap_mim_m3_1 l=10.72 w=5.27
X102 GND.t79 VP.t7 a_n7464_n776.t11 GND.t43 sky130_fd_pr__nfet_01v8 ad=1.18305 pd=7.5 as=2.7963 ps=15.12 w=7.17 l=6.98
X103 VDD.t122 GND.t226 a_n11384_10929.t4 VDD.t121 sky130_fd_pr__pfet_01v8 ad=0.37455 pd=2.6 as=0.37455 ps=2.6 w=2.27 l=5.93
X104 VOUT.t45 a_n4580_9541.t0 sky130_fd_pr__cap_mim_m3_1 l=10.72 w=5.27
X105 GND.t140 GND.t138 GND.t139 GND.t89 sky130_fd_pr__nfet_01v8 ad=2.7963 pd=15.12 as=0 ps=0 w=7.17 l=6.98
X106 a_n7464_n776.t10 VP.t8 GND.t78 GND.t54 sky130_fd_pr__nfet_01v8 ad=1.18305 pd=7.5 as=1.18305 ps=7.5 w=7.17 l=6.98
X107 GND.t137 GND.t135 VN.t1 GND.t136 sky130_fd_pr__nfet_01v8 ad=0.165 pd=1.33 as=0.39 ps=2.78 w=1 l=0.5
X108 GND.t132 GND.t131 a_n4580_9541.t10 VDD.t120 sky130_fd_pr__pfet_01v8 ad=0.37455 pd=2.6 as=0.8853 ps=5.32 w=2.27 l=5.93
X109 a_n11384_10929.t8 GND.t133 GND.t134 VDD.t119 sky130_fd_pr__pfet_01v8 ad=0.37455 pd=2.6 as=0.8853 ps=5.32 w=2.27 l=5.93
X110 VOUT.t8 CS_BIAS.t41 GND.t71 GND.t52 sky130_fd_pr__nfet_01v8 ad=0.44715 pd=3.04 as=1.0569 ps=6.2 w=2.71 l=2.37
X111 GND.t63 CS_BIAS.t42 VOUT.t7 GND.t62 sky130_fd_pr__nfet_01v8 ad=0.44715 pd=3.04 as=0.44715 ps=3.04 w=2.71 l=2.37
X112 VDD.t118 GND.t227 a_n11384_10929.t3 VDD.t117 sky130_fd_pr__pfet_01v8 ad=0.37455 pd=2.6 as=0.8853 ps=5.32 w=2.27 l=5.93
X113 VDD.t36 VDD.t34 VDD.t35 VDD.t28 sky130_fd_pr__pfet_01v8 ad=1.5561 pd=8.76 as=0 ps=0 w=3.99 l=3.26
X114 VDD.t33 VDD.t31 VDD.t32 VDD.t28 sky130_fd_pr__pfet_01v8 ad=1.5561 pd=8.76 as=0 ps=0 w=3.99 l=3.26
X115 GND.t130 GND.t128 VP.t1 GND.t129 sky130_fd_pr__nfet_01v8 ad=0.165 pd=1.33 as=0.39 ps=2.78 w=1 l=0.5
X116 DIFFPAIR_BIAS.t5 DIFFPAIR_BIAS.t4 GND.t61 GND.t60 sky130_fd_pr__nfet_01v8 ad=1.6146 pd=9.06 as=1.6146 ps=9.06 w=4.14 l=4.06
X117 GND.t127 GND.t124 GND.t126 GND.t125 sky130_fd_pr__nfet_01v8 ad=1.0569 pd=6.2 as=0 ps=0 w=2.71 l=2.37
X118 GND.t77 CS_BIAS.t6 CS_BIAS.t7 GND.t45 sky130_fd_pr__nfet_01v8 ad=0.44715 pd=3.04 as=0.44715 ps=3.04 w=2.71 l=2.37
X119 VDD.t30 VDD.t27 VDD.t29 VDD.t28 sky130_fd_pr__pfet_01v8 ad=1.5561 pd=8.76 as=0 ps=0 w=3.99 l=3.26
X120 GND.t30 CS_BIAS.t4 CS_BIAS.t5 GND.t28 sky130_fd_pr__nfet_01v8 ad=0.44715 pd=3.04 as=0.44715 ps=3.04 w=2.71 l=2.37
X121 a_n11384_10929.t2 GND.t228 VDD.t116 VDD.t115 sky130_fd_pr__pfet_01v8 ad=0.8853 pd=5.32 as=0.37455 ps=2.6 w=2.27 l=5.93
X122 GND.t123 GND.t120 GND.t122 GND.t121 sky130_fd_pr__nfet_01v8 ad=1.0569 pd=6.2 as=0 ps=0 w=2.71 l=2.37
X123 GND.t23 VP.t9 a_n7464_n776.t3 GND.t22 sky130_fd_pr__nfet_01v8 ad=1.18305 pd=7.5 as=2.7963 ps=15.12 w=7.17 l=6.98
X124 DIFFPAIR_BIAS.t3 DIFFPAIR_BIAS.t2 GND.t7 GND.t6 sky130_fd_pr__nfet_01v8 ad=1.6146 pd=9.06 as=1.6146 ps=9.06 w=4.14 l=4.06
X125 VDD.t26 VDD.t24 VDD.t25 VDD.t3 sky130_fd_pr__pfet_01v8 ad=1.5561 pd=8.76 as=0 ps=0 w=3.99 l=3.26
X126 a_n4580_9541.t6 GND.t229 VDD.t114 VDD.t113 sky130_fd_pr__pfet_01v8 ad=0.37455 pd=2.6 as=0.37455 ps=2.6 w=2.27 l=5.93
X127 a_n7464_n776.t4 VP.t10 GND.t34 GND.t33 sky130_fd_pr__nfet_01v8 ad=1.18305 pd=7.5 as=1.18305 ps=7.5 w=7.17 l=6.98
X128 GND.t38 VN.t12 a_n7464_n776.t16 GND.t37 sky130_fd_pr__nfet_01v8 ad=1.18305 pd=7.5 as=1.18305 ps=7.5 w=7.17 l=6.98
X129 VDD.t23 VDD.t20 VDD.t22 VDD.t21 sky130_fd_pr__pfet_01v8 ad=0.8853 pd=5.32 as=0 ps=0 w=2.27 l=5.93
X130 GND.t5 VP.t11 a_n7464_n776.t0 GND.t4 sky130_fd_pr__nfet_01v8 ad=2.7963 pd=15.12 as=1.18305 ps=7.5 w=7.17 l=6.98
X131 a_n7464_n776.t15 VN.t13 GND.t36 GND.t35 sky130_fd_pr__nfet_01v8 ad=1.18305 pd=7.5 as=1.18305 ps=7.5 w=7.17 l=6.98
X132 GND.t119 GND.t117 VP.t0 GND.t118 sky130_fd_pr__nfet_01v8 ad=0.165 pd=1.33 as=0.165 ps=1.33 w=1 l=0.5
X133 GND.t116 GND.t114 VN.t0 GND.t115 sky130_fd_pr__nfet_01v8 ad=0.165 pd=1.33 as=0.165 ps=1.33 w=1 l=0.5
X134 GND.t113 GND.t110 GND.t112 GND.t111 sky130_fd_pr__nfet_01v8 ad=1.0569 pd=6.2 as=0 ps=0 w=2.71 l=2.37
X135 VOUT.t6 CS_BIAS.t43 GND.t51 GND.t39 sky130_fd_pr__nfet_01v8 ad=0.44715 pd=3.04 as=1.0569 ps=6.2 w=2.71 l=2.37
X136 a_n11384_10929.t1 GND.t230 VDD.t112 VDD.t111 sky130_fd_pr__pfet_01v8 ad=0.37455 pd=2.6 as=0.37455 ps=2.6 w=2.27 l=5.93
X137 GND.t109 GND.t106 GND.t108 GND.t107 sky130_fd_pr__nfet_01v8 ad=1.6146 pd=9.06 as=0 ps=0 w=4.14 l=4.06
X138 GND.t9 VP.t12 a_n7464_n776.t1 GND.t8 sky130_fd_pr__nfet_01v8 ad=2.7963 pd=15.12 as=1.18305 ps=7.5 w=7.17 l=6.98
X139 VDD.t19 VDD.t17 VDD.t18 VDD.t7 sky130_fd_pr__pfet_01v8 ad=1.5561 pd=8.76 as=0 ps=0 w=3.99 l=3.26
X140 VDD.t110 GND.t231 a_n4580_9541.t5 VDD.t109 sky130_fd_pr__pfet_01v8 ad=0.37455 pd=2.6 as=0.37455 ps=2.6 w=2.27 l=5.93
X141 GND.t65 CS_BIAS.t44 VOUT.t5 GND.t64 sky130_fd_pr__nfet_01v8 ad=0.44715 pd=3.04 as=0.44715 ps=3.04 w=2.71 l=2.37
X142 VDD.t16 VDD.t14 VDD.t15 VDD.t7 sky130_fd_pr__pfet_01v8 ad=1.5561 pd=8.76 as=0 ps=0 w=3.99 l=3.26
X143 a_n4580_9541.t4 GND.t232 VDD.t108 VDD.t107 sky130_fd_pr__pfet_01v8 ad=0.37455 pd=2.6 as=0.37455 ps=2.6 w=2.27 l=5.93
X144 GND.t46 CS_BIAS.t45 VOUT.t4 GND.t45 sky130_fd_pr__nfet_01v8 ad=0.44715 pd=3.04 as=0.44715 ps=3.04 w=2.71 l=2.37
X145 VOUT.t3 CS_BIAS.t46 GND.t26 GND.t0 sky130_fd_pr__nfet_01v8 ad=0.44715 pd=3.04 as=0.44715 ps=3.04 w=2.71 l=2.37
X146 VOUT.t2 CS_BIAS.t47 GND.t203 GND.t14 sky130_fd_pr__nfet_01v8 ad=1.0569 pd=6.2 as=0.44715 ps=3.04 w=2.71 l=2.37
X147 VDD.t13 VDD.t10 VDD.t12 VDD.t11 sky130_fd_pr__pfet_01v8 ad=0.8853 pd=5.32 as=0 ps=0 w=2.27 l=5.93
X148 VDD.t9 VDD.t6 VDD.t8 VDD.t7 sky130_fd_pr__pfet_01v8 ad=1.5561 pd=8.76 as=0 ps=0 w=3.99 l=3.26
X149 CS_BIAS.t3 CS_BIAS.t2 GND.t205 GND.t14 sky130_fd_pr__nfet_01v8 ad=1.0569 pd=6.2 as=0.44715 ps=3.04 w=2.71 l=2.37
X150 GND.t105 GND.t102 GND.t104 GND.t103 sky130_fd_pr__nfet_01v8 ad=2.7963 pd=15.12 as=0 ps=0 w=7.17 l=6.98
X151 GND.t101 GND.t98 GND.t100 GND.t99 sky130_fd_pr__nfet_01v8 ad=1.0569 pd=6.2 as=0 ps=0 w=2.71 l=2.37
X152 VOUT.t46 a_n4580_9541.t0 sky130_fd_pr__cap_mim_m3_1 l=10.72 w=5.27
X153 a_n11384_10929.t0 GND.t233 VDD.t106 VDD.t105 sky130_fd_pr__pfet_01v8 ad=0.37455 pd=2.6 as=0.37455 ps=2.6 w=2.27 l=5.93
X154 a_11512_10929# a_11512_10929# a_11512_10929# VDD.t0 sky130_fd_pr__pfet_01v8 ad=0.8853 pd=5.32 as=1.7706 ps=10.64 w=2.27 l=5.93
X155 DIFFPAIR_BIAS.t1 DIFFPAIR_BIAS.t0 GND.t209 GND.t208 sky130_fd_pr__nfet_01v8 ad=1.6146 pd=9.06 as=1.6146 ps=9.06 w=4.14 l=4.06
X156 CS_BIAS.t1 CS_BIAS.t0 GND.t210 GND.t0 sky130_fd_pr__nfet_01v8 ad=0.44715 pd=3.04 as=0.44715 ps=3.04 w=2.71 l=2.37
X157 VOUT.t47 a_n4580_9541.t0 sky130_fd_pr__cap_mim_m3_1 l=10.72 w=5.27
X158 VOUT.t1 CS_BIAS.t48 GND.t50 GND.t39 sky130_fd_pr__nfet_01v8 ad=0.44715 pd=3.04 as=1.0569 ps=6.2 w=2.71 l=2.37
X159 GND.t202 CS_BIAS.t49 VOUT.t0 GND.t64 sky130_fd_pr__nfet_01v8 ad=0.44715 pd=3.04 as=0.44715 ps=3.04 w=2.71 l=2.37
X160 VOUT.t33 GND.t234 VDD.t104 VDD.t98 sky130_fd_pr__pfet_01v8 ad=1.5561 pd=8.76 as=1.5561 ps=8.76 w=3.99 l=3.26
X161 VOUT.t36 GND.t235 VDD.t103 VDD.t98 sky130_fd_pr__pfet_01v8 ad=1.5561 pd=8.76 as=1.5561 ps=8.76 w=3.99 l=3.26
X162 a_n7464_n776.t2 VP.t13 GND.t17 GND.t16 sky130_fd_pr__nfet_01v8 ad=1.18305 pd=7.5 as=1.18305 ps=7.5 w=7.17 l=6.98
X163 a_n4580_9541.t9 GND.t92 GND.t93 VDD.t102 sky130_fd_pr__pfet_01v8 ad=0.8853 pd=5.32 as=0.37455 ps=2.6 w=2.27 l=5.93
X164 a_n4580_9541.t3 GND.t236 VDD.t101 VDD.t100 sky130_fd_pr__pfet_01v8 ad=0.8853 pd=5.32 as=0.37455 ps=2.6 w=2.27 l=5.93
X165 VOUT.t39 GND.t237 VDD.t99 VDD.t98 sky130_fd_pr__pfet_01v8 ad=1.5561 pd=8.76 as=1.5561 ps=8.76 w=3.99 l=3.26
X166 VDD.t97 GND.t238 a_n4580_9541.t2 VDD.t96 sky130_fd_pr__pfet_01v8 ad=0.37455 pd=2.6 as=0.37455 ps=2.6 w=2.27 l=5.93
X167 VDD.t5 VDD.t2 VDD.t4 VDD.t3 sky130_fd_pr__pfet_01v8 ad=1.5561 pd=8.76 as=0 ps=0 w=3.99 l=3.26
X168 a_n7464_n776.t6 DIFFPAIR_BIAS.t13 GND.t49 GND.t48 sky130_fd_pr__nfet_01v8 ad=1.6146 pd=9.06 as=1.6146 ps=9.06 w=4.14 l=4.06
X169 a_n7464_n776.t5 DIFFPAIR_BIAS.t14 GND.t19 GND.t18 sky130_fd_pr__nfet_01v8 ad=1.6146 pd=9.06 as=1.6146 ps=9.06 w=4.14 l=4.06
X170 GND.t91 GND.t88 GND.t90 GND.t89 sky130_fd_pr__nfet_01v8 ad=2.7963 pd=15.12 as=0 ps=0 w=7.17 l=6.98
X171 a_n4580_9541.t1 GND.t239 VDD.t95 VDD.t94 sky130_fd_pr__pfet_01v8 ad=0.8853 pd=5.32 as=0.37455 ps=2.6 w=2.27 l=5.93
R0 GND.n8216 GND.n532 1529.15
R1 GND.n7375 GND.n1035 1031.54
R2 GND.n7221 GND.n1176 939.619
R3 GND.n382 GND.n242 763.976
R4 GND.n8447 GND.n251 763.976
R5 GND.n6450 GND.n6449 763.976
R6 GND.n6510 GND.n3070 763.976
R7 GND.n7043 GND.n1385 763.976
R8 GND.n7045 GND.n1379 763.976
R9 GND.n7115 GND.n7114 763.976
R10 GND.n7177 GND.n1246 763.976
R11 GND.n2829 GND.n2827 761.573
R12 GND.n6627 GND.n2903 761.573
R13 GND.n4319 GND.n2663 761.573
R14 GND.n6859 GND.n2665 761.573
R15 GND.n7374 GND.n1036 732.745
R16 GND.n8215 GND.n533 732.745
R17 GND.n8396 GND.n423 732.745
R18 GND.n7222 GND.n1177 732.745
R19 GND.n6271 GND.n247 718.33
R20 GND.n6294 GND.n252 718.33
R21 GND.n5820 GND.n3066 718.33
R22 GND.n6447 GND.n5822 718.33
R23 GND.n1935 GND.n1383 718.33
R24 GND.n6989 GND.n1381 718.33
R25 GND.n1291 GND.n1242 718.33
R26 GND.n7112 GND.n1293 718.33
R27 GND.n1935 GND.n1436 589.749
R28 GND.n6111 GND.n3066 588.893
R29 GND.n7370 GND.n1036 585
R30 GND.n1036 GND.n1035 585
R31 GND.n7369 GND.n7368 585
R32 GND.n7368 GND.n7367 585
R33 GND.n1039 GND.n1038 585
R34 GND.n7366 GND.n1039 585
R35 GND.n7364 GND.n7363 585
R36 GND.n7365 GND.n7364 585
R37 GND.n7362 GND.n1041 585
R38 GND.n1041 GND.n1040 585
R39 GND.n7361 GND.n7360 585
R40 GND.n7360 GND.n7359 585
R41 GND.n1047 GND.n1046 585
R42 GND.n7358 GND.n1047 585
R43 GND.n7356 GND.n7355 585
R44 GND.n7357 GND.n7356 585
R45 GND.n7354 GND.n1049 585
R46 GND.n1049 GND.n1048 585
R47 GND.n7353 GND.n7352 585
R48 GND.n7352 GND.n7351 585
R49 GND.n1055 GND.n1054 585
R50 GND.n7350 GND.n1055 585
R51 GND.n7348 GND.n7347 585
R52 GND.n7349 GND.n7348 585
R53 GND.n7346 GND.n1057 585
R54 GND.n1057 GND.n1056 585
R55 GND.n7345 GND.n7344 585
R56 GND.n7344 GND.n7343 585
R57 GND.n1063 GND.n1062 585
R58 GND.n7342 GND.n1063 585
R59 GND.n7340 GND.n7339 585
R60 GND.n7341 GND.n7340 585
R61 GND.n7338 GND.n1065 585
R62 GND.n1065 GND.n1064 585
R63 GND.n7337 GND.n7336 585
R64 GND.n7336 GND.n7335 585
R65 GND.n1071 GND.n1070 585
R66 GND.n7334 GND.n1071 585
R67 GND.n7332 GND.n7331 585
R68 GND.n7333 GND.n7332 585
R69 GND.n7330 GND.n1073 585
R70 GND.n1073 GND.n1072 585
R71 GND.n7329 GND.n7328 585
R72 GND.n7328 GND.n7327 585
R73 GND.n1079 GND.n1078 585
R74 GND.n7326 GND.n1079 585
R75 GND.n7324 GND.n7323 585
R76 GND.n7325 GND.n7324 585
R77 GND.n7322 GND.n1081 585
R78 GND.n1081 GND.n1080 585
R79 GND.n7321 GND.n7320 585
R80 GND.n7320 GND.n7319 585
R81 GND.n1087 GND.n1086 585
R82 GND.n7318 GND.n1087 585
R83 GND.n7316 GND.n7315 585
R84 GND.n7317 GND.n7316 585
R85 GND.n7314 GND.n1089 585
R86 GND.n1089 GND.n1088 585
R87 GND.n7313 GND.n7312 585
R88 GND.n7312 GND.n7311 585
R89 GND.n1095 GND.n1094 585
R90 GND.n7310 GND.n1095 585
R91 GND.n7308 GND.n7307 585
R92 GND.n7309 GND.n7308 585
R93 GND.n7306 GND.n1097 585
R94 GND.n1097 GND.n1096 585
R95 GND.n7305 GND.n7304 585
R96 GND.n7304 GND.n7303 585
R97 GND.n1103 GND.n1102 585
R98 GND.n7302 GND.n1103 585
R99 GND.n7300 GND.n7299 585
R100 GND.n7301 GND.n7300 585
R101 GND.n7298 GND.n1105 585
R102 GND.n1105 GND.n1104 585
R103 GND.n7297 GND.n7296 585
R104 GND.n7296 GND.n7295 585
R105 GND.n1111 GND.n1110 585
R106 GND.n7294 GND.n1111 585
R107 GND.n7292 GND.n7291 585
R108 GND.n7293 GND.n7292 585
R109 GND.n7290 GND.n1113 585
R110 GND.n1113 GND.n1112 585
R111 GND.n7289 GND.n7288 585
R112 GND.n7288 GND.n7287 585
R113 GND.n1119 GND.n1118 585
R114 GND.n7286 GND.n1119 585
R115 GND.n7284 GND.n7283 585
R116 GND.n7285 GND.n7284 585
R117 GND.n7282 GND.n1121 585
R118 GND.n1121 GND.n1120 585
R119 GND.n7281 GND.n7280 585
R120 GND.n7280 GND.n7279 585
R121 GND.n1127 GND.n1126 585
R122 GND.n7278 GND.n1127 585
R123 GND.n7276 GND.n7275 585
R124 GND.n7277 GND.n7276 585
R125 GND.n7274 GND.n1129 585
R126 GND.n1129 GND.n1128 585
R127 GND.n7273 GND.n7272 585
R128 GND.n7272 GND.n7271 585
R129 GND.n1135 GND.n1134 585
R130 GND.n7270 GND.n1135 585
R131 GND.n7268 GND.n7267 585
R132 GND.n7269 GND.n7268 585
R133 GND.n7266 GND.n1137 585
R134 GND.n1137 GND.n1136 585
R135 GND.n7265 GND.n7264 585
R136 GND.n7264 GND.n7263 585
R137 GND.n1143 GND.n1142 585
R138 GND.n7262 GND.n1143 585
R139 GND.n7260 GND.n7259 585
R140 GND.n7261 GND.n7260 585
R141 GND.n7258 GND.n1145 585
R142 GND.n1145 GND.n1144 585
R143 GND.n7257 GND.n7256 585
R144 GND.n7256 GND.n7255 585
R145 GND.n1151 GND.n1150 585
R146 GND.n7254 GND.n1151 585
R147 GND.n7252 GND.n7251 585
R148 GND.n7253 GND.n7252 585
R149 GND.n7250 GND.n1153 585
R150 GND.n1153 GND.n1152 585
R151 GND.n7249 GND.n7248 585
R152 GND.n7248 GND.n7247 585
R153 GND.n1159 GND.n1158 585
R154 GND.n7246 GND.n1159 585
R155 GND.n7244 GND.n7243 585
R156 GND.n7245 GND.n7244 585
R157 GND.n7242 GND.n1161 585
R158 GND.n1161 GND.n1160 585
R159 GND.n7241 GND.n7240 585
R160 GND.n7240 GND.n7239 585
R161 GND.n1167 GND.n1166 585
R162 GND.n7238 GND.n1167 585
R163 GND.n7236 GND.n7235 585
R164 GND.n7237 GND.n7236 585
R165 GND.n7234 GND.n1169 585
R166 GND.n1169 GND.n1168 585
R167 GND.n7233 GND.n7232 585
R168 GND.n7232 GND.n7231 585
R169 GND.n1175 GND.n1174 585
R170 GND.n7230 GND.n1175 585
R171 GND.n7228 GND.n7227 585
R172 GND.n7229 GND.n7228 585
R173 GND.n7226 GND.n1177 585
R174 GND.n1177 GND.n1176 585
R175 GND.n7374 GND.n7373 585
R176 GND.n7375 GND.n7374 585
R177 GND.n1034 GND.n1033 585
R178 GND.n7376 GND.n1034 585
R179 GND.n7379 GND.n7378 585
R180 GND.n7378 GND.n7377 585
R181 GND.n1031 GND.n1030 585
R182 GND.n1030 GND.n1029 585
R183 GND.n7384 GND.n7383 585
R184 GND.n7385 GND.n7384 585
R185 GND.n1028 GND.n1027 585
R186 GND.n7386 GND.n1028 585
R187 GND.n7389 GND.n7388 585
R188 GND.n7388 GND.n7387 585
R189 GND.n1025 GND.n1024 585
R190 GND.n1024 GND.n1023 585
R191 GND.n7394 GND.n7393 585
R192 GND.n7395 GND.n7394 585
R193 GND.n1022 GND.n1021 585
R194 GND.n7396 GND.n1022 585
R195 GND.n7399 GND.n7398 585
R196 GND.n7398 GND.n7397 585
R197 GND.n1019 GND.n1018 585
R198 GND.n1018 GND.n1017 585
R199 GND.n7404 GND.n7403 585
R200 GND.n7405 GND.n7404 585
R201 GND.n1016 GND.n1015 585
R202 GND.n7406 GND.n1016 585
R203 GND.n7409 GND.n7408 585
R204 GND.n7408 GND.n7407 585
R205 GND.n1013 GND.n1012 585
R206 GND.n1012 GND.n1011 585
R207 GND.n7414 GND.n7413 585
R208 GND.n7415 GND.n7414 585
R209 GND.n1010 GND.n1009 585
R210 GND.n7416 GND.n1010 585
R211 GND.n7419 GND.n7418 585
R212 GND.n7418 GND.n7417 585
R213 GND.n1007 GND.n1006 585
R214 GND.n1006 GND.n1005 585
R215 GND.n7424 GND.n7423 585
R216 GND.n7425 GND.n7424 585
R217 GND.n1004 GND.n1003 585
R218 GND.n7426 GND.n1004 585
R219 GND.n7429 GND.n7428 585
R220 GND.n7428 GND.n7427 585
R221 GND.n1001 GND.n1000 585
R222 GND.n1000 GND.n999 585
R223 GND.n7434 GND.n7433 585
R224 GND.n7435 GND.n7434 585
R225 GND.n998 GND.n997 585
R226 GND.n7436 GND.n998 585
R227 GND.n7439 GND.n7438 585
R228 GND.n7438 GND.n7437 585
R229 GND.n995 GND.n994 585
R230 GND.n994 GND.n993 585
R231 GND.n7444 GND.n7443 585
R232 GND.n7445 GND.n7444 585
R233 GND.n992 GND.n991 585
R234 GND.n7446 GND.n992 585
R235 GND.n7449 GND.n7448 585
R236 GND.n7448 GND.n7447 585
R237 GND.n989 GND.n988 585
R238 GND.n988 GND.n987 585
R239 GND.n7454 GND.n7453 585
R240 GND.n7455 GND.n7454 585
R241 GND.n986 GND.n985 585
R242 GND.n7456 GND.n986 585
R243 GND.n7459 GND.n7458 585
R244 GND.n7458 GND.n7457 585
R245 GND.n983 GND.n982 585
R246 GND.n982 GND.n981 585
R247 GND.n7464 GND.n7463 585
R248 GND.n7465 GND.n7464 585
R249 GND.n980 GND.n979 585
R250 GND.n7466 GND.n980 585
R251 GND.n7469 GND.n7468 585
R252 GND.n7468 GND.n7467 585
R253 GND.n977 GND.n976 585
R254 GND.n976 GND.n975 585
R255 GND.n7474 GND.n7473 585
R256 GND.n7475 GND.n7474 585
R257 GND.n974 GND.n973 585
R258 GND.n7476 GND.n974 585
R259 GND.n7479 GND.n7478 585
R260 GND.n7478 GND.n7477 585
R261 GND.n971 GND.n970 585
R262 GND.n970 GND.n969 585
R263 GND.n7484 GND.n7483 585
R264 GND.n7485 GND.n7484 585
R265 GND.n968 GND.n967 585
R266 GND.n7486 GND.n968 585
R267 GND.n7489 GND.n7488 585
R268 GND.n7488 GND.n7487 585
R269 GND.n965 GND.n964 585
R270 GND.n964 GND.n963 585
R271 GND.n7494 GND.n7493 585
R272 GND.n7495 GND.n7494 585
R273 GND.n962 GND.n961 585
R274 GND.n7496 GND.n962 585
R275 GND.n7499 GND.n7498 585
R276 GND.n7498 GND.n7497 585
R277 GND.n959 GND.n958 585
R278 GND.n958 GND.n957 585
R279 GND.n7504 GND.n7503 585
R280 GND.n7505 GND.n7504 585
R281 GND.n956 GND.n955 585
R282 GND.n7506 GND.n956 585
R283 GND.n7509 GND.n7508 585
R284 GND.n7508 GND.n7507 585
R285 GND.n953 GND.n952 585
R286 GND.n952 GND.n951 585
R287 GND.n7514 GND.n7513 585
R288 GND.n7515 GND.n7514 585
R289 GND.n950 GND.n949 585
R290 GND.n7516 GND.n950 585
R291 GND.n7519 GND.n7518 585
R292 GND.n7518 GND.n7517 585
R293 GND.n947 GND.n946 585
R294 GND.n946 GND.n945 585
R295 GND.n7524 GND.n7523 585
R296 GND.n7525 GND.n7524 585
R297 GND.n944 GND.n943 585
R298 GND.n7526 GND.n944 585
R299 GND.n7529 GND.n7528 585
R300 GND.n7528 GND.n7527 585
R301 GND.n941 GND.n940 585
R302 GND.n940 GND.n939 585
R303 GND.n7534 GND.n7533 585
R304 GND.n7535 GND.n7534 585
R305 GND.n938 GND.n937 585
R306 GND.n7536 GND.n938 585
R307 GND.n7539 GND.n7538 585
R308 GND.n7538 GND.n7537 585
R309 GND.n935 GND.n934 585
R310 GND.n934 GND.n933 585
R311 GND.n7544 GND.n7543 585
R312 GND.n7545 GND.n7544 585
R313 GND.n932 GND.n931 585
R314 GND.n7546 GND.n932 585
R315 GND.n7549 GND.n7548 585
R316 GND.n7548 GND.n7547 585
R317 GND.n929 GND.n928 585
R318 GND.n928 GND.n927 585
R319 GND.n7554 GND.n7553 585
R320 GND.n7555 GND.n7554 585
R321 GND.n926 GND.n925 585
R322 GND.n7556 GND.n926 585
R323 GND.n7559 GND.n7558 585
R324 GND.n7558 GND.n7557 585
R325 GND.n923 GND.n922 585
R326 GND.n922 GND.n921 585
R327 GND.n7564 GND.n7563 585
R328 GND.n7565 GND.n7564 585
R329 GND.n920 GND.n919 585
R330 GND.n7566 GND.n920 585
R331 GND.n7569 GND.n7568 585
R332 GND.n7568 GND.n7567 585
R333 GND.n917 GND.n916 585
R334 GND.n916 GND.n915 585
R335 GND.n7574 GND.n7573 585
R336 GND.n7575 GND.n7574 585
R337 GND.n914 GND.n913 585
R338 GND.n7576 GND.n914 585
R339 GND.n7579 GND.n7578 585
R340 GND.n7578 GND.n7577 585
R341 GND.n911 GND.n910 585
R342 GND.n910 GND.n909 585
R343 GND.n7584 GND.n7583 585
R344 GND.n7585 GND.n7584 585
R345 GND.n908 GND.n907 585
R346 GND.n7586 GND.n908 585
R347 GND.n7589 GND.n7588 585
R348 GND.n7588 GND.n7587 585
R349 GND.n905 GND.n904 585
R350 GND.n904 GND.n903 585
R351 GND.n7594 GND.n7593 585
R352 GND.n7595 GND.n7594 585
R353 GND.n902 GND.n901 585
R354 GND.n7596 GND.n902 585
R355 GND.n7599 GND.n7598 585
R356 GND.n7598 GND.n7597 585
R357 GND.n899 GND.n898 585
R358 GND.n898 GND.n897 585
R359 GND.n7604 GND.n7603 585
R360 GND.n7605 GND.n7604 585
R361 GND.n896 GND.n895 585
R362 GND.n7606 GND.n896 585
R363 GND.n7609 GND.n7608 585
R364 GND.n7608 GND.n7607 585
R365 GND.n893 GND.n892 585
R366 GND.n892 GND.n891 585
R367 GND.n7614 GND.n7613 585
R368 GND.n7615 GND.n7614 585
R369 GND.n890 GND.n889 585
R370 GND.n7616 GND.n890 585