* NGSPICE file created from tg_sample_0002.ext - technology: sky130A

.subckt tg_sample_0002 VIN VGN VGP VSS VCC VOUT
X0 VOUT.t9 VGP.t0 VIN.t9 VCC.t4 sky130_fd_pr__pfet_01v8 ad=1.386 pd=8.73 as=3.276 ps=17.58 w=8.4 l=3.34
X1 VOUT.t8 VGP.t1 VIN.t5 VCC.t3 sky130_fd_pr__pfet_01v8 ad=3.276 pd=17.58 as=1.386 ps=8.73 w=8.4 l=3.34
X2 VIN.t1 VGN.t0 VOUT.t1 VSS.t4 sky130_fd_pr__nfet_01v8 ad=0.1617 pd=1.31 as=0.1617 ps=1.31 w=0.98 l=3.47
X3 VCC.t12 VCC.t9 VCC.t11 VCC.t10 sky130_fd_pr__pfet_01v8 ad=3.276 pd=17.58 as=0 ps=0 w=8.4 l=3.34
X4 VOUT.t7 VGP.t2 VIN.t6 VCC.t2 sky130_fd_pr__pfet_01v8 ad=1.386 pd=8.73 as=1.386 ps=8.73 w=8.4 l=3.34
X5 VCC.t8 VCC.t5 VCC.t7 VCC.t6 sky130_fd_pr__pfet_01v8 ad=3.276 pd=17.58 as=0 ps=0 w=8.4 l=3.34
X6 VSS.t12 VSS.t9 VSS.t11 VSS.t10 sky130_fd_pr__nfet_01v8 ad=0.3822 pd=2.74 as=0 ps=0 w=0.98 l=3.47
X7 VIN.t3 VGN.t1 VOUT.t3 VSS.t3 sky130_fd_pr__nfet_01v8 ad=0.1617 pd=1.31 as=0.1617 ps=1.31 w=0.98 l=3.47
X8 VOUT.t0 VGN.t2 VIN.t0 VSS.t2 sky130_fd_pr__nfet_01v8 ad=0.1617 pd=1.31 as=0.3822 ps=2.74 w=0.98 l=3.47
X9 VOUT.t2 VGN.t3 VIN.t2 VSS.t1 sky130_fd_pr__nfet_01v8 ad=0.1617 pd=1.31 as=0.1617 ps=1.31 w=0.98 l=3.47
X10 VIN.t7 VGP.t3 VOUT.t6 VCC.t1 sky130_fd_pr__pfet_01v8 ad=1.386 pd=8.73 as=1.386 ps=8.73 w=8.4 l=3.34
X11 VIN.t8 VGP.t4 VOUT.t5 VCC.t0 sky130_fd_pr__pfet_01v8 ad=1.386 pd=8.73 as=1.386 ps=8.73 w=8.4 l=3.34
X12 VSS.t8 VSS.t5 VSS.t7 VSS.t6 sky130_fd_pr__nfet_01v8 ad=0.3822 pd=2.74 as=0 ps=0 w=0.98 l=3.47
X13 VOUT.t4 VGN.t4 VIN.t4 VSS.t0 sky130_fd_pr__nfet_01v8 ad=0.3822 pd=2.74 as=0.1617 ps=1.31 w=0.98 l=3.47
R0 VGP.n47 VGP.n46 161.3
R1 VGP.n45 VGP.n1 161.3
R2 VGP.n44 VGP.n43 161.3
R3 VGP.n42 VGP.n2 161.3
R4 VGP.n41 VGP.n40 161.3
R5 VGP.n39 VGP.n3 161.3
R6 VGP.n38 VGP.n37 161.3
R7 VGP.n36 VGP.n35 161.3
R8 VGP.n34 VGP.n5 161.3
R9 VGP.n33 VGP.n32 161.3
R10 VGP.n31 VGP.n6 161.3
R11 VGP.n30 VGP.n29 161.3
R12 VGP.n28 VGP.n7 161.3
R13 VGP.n27 VGP.n26 161.3
R14 VGP.n25 VGP.n8 161.3
R15 VGP.n24 VGP.n23 161.3
R16 VGP.n22 VGP.n9 161.3
R17 VGP.n21 VGP.n20 161.3
R18 VGP.n19 VGP.n10 161.3
R19 VGP.n18 VGP.n17 161.3
R20 VGP.n16 VGP.n11 161.3
R21 VGP.n15 VGP.n14 161.3
R22 VGP.n13 VGP.t0 93.6256
R23 VGP.n48 VGP.n0 73.3375
R24 VGP.n13 VGP.n12 65.9526
R25 VGP.n8 VGP.t2 60.6113
R26 VGP.n12 VGP.t3 60.6113
R27 VGP.n4 VGP.t4 60.6113
R28 VGP.n0 VGP.t1 60.6113
R29 VGP.n21 VGP.n10 56.4773
R30 VGP.n29 VGP.n6 56.4773
R31 VGP.n44 VGP.n2 40.8975
R32 VGP.n40 VGP.n2 39.9237
R33 VGP.n17 VGP.n10 24.3439
R34 VGP.n17 VGP.n16 24.3439
R35 VGP.n16 VGP.n15 24.3439
R36 VGP.n29 VGP.n28 24.3439
R37 VGP.n28 VGP.n27 24.3439
R38 VGP.n27 VGP.n8 24.3439
R39 VGP.n23 VGP.n8 24.3439
R40 VGP.n23 VGP.n22 24.3439
R41 VGP.n22 VGP.n21 24.3439
R42 VGP.n40 VGP.n39 24.3439
R43 VGP.n39 VGP.n38 24.3439
R44 VGP.n35 VGP.n34 24.3439
R45 VGP.n34 VGP.n33 24.3439
R46 VGP.n33 VGP.n6 24.3439
R47 VGP.n46 VGP.n45 24.3439
R48 VGP.n45 VGP.n44 24.3439
R49 VGP.n46 VGP.n0 16.554
R50 VGP.n38 VGP.n4 16.0672
R51 VGP.n15 VGP.n12 8.27727
R52 VGP.n35 VGP.n4 8.27727
R53 VGP.n14 VGP.n13 4.08017
R54 VGP VGP.n48 0.35776
R55 VGP.n48 VGP.n47 0.355081
R56 VGP.n47 VGP.n1 0.189894
R57 VGP.n43 VGP.n1 0.189894
R58 VGP.n43 VGP.n42 0.189894
R59 VGP.n42 VGP.n41 0.189894
R60 VGP.n41 VGP.n3 0.189894
R61 VGP.n37 VGP.n3 0.189894
R62 VGP.n37 VGP.n36 0.189894
R63 VGP.n36 VGP.n5 0.189894
R64 VGP.n32 VGP.n5 0.189894
R65 VGP.n32 VGP.n31 0.189894
R66 VGP.n31 VGP.n30 0.189894
R67 VGP.n30 VGP.n7 0.189894
R68 VGP.n26 VGP.n7 0.189894
R69 VGP.n26 VGP.n25 0.189894
R70 VGP.n25 VGP.n24 0.189894
R71 VGP.n24 VGP.n9 0.189894
R72 VGP.n20 VGP.n9 0.189894
R73 VGP.n20 VGP.n19 0.189894
R74 VGP.n19 VGP.n18 0.189894
R75 VGP.n18 VGP.n11 0.189894
R76 VGP.n14 VGP.n11 0.189894
R77 VIN.n5 VIN.t0 246.547
R78 VIN.n5 VIN.n4 223.066
R79 VIN.n7 VIN.n6 223.066
R80 VIN.n1 VIN.t9 69.7266
R81 VIN.n1 VIN.n0 62.6931
R82 VIN.n3 VIN.n2 62.6931
R83 VIN.n4 VIN.t2 20.2046
R84 VIN.n4 VIN.t1 20.2046
R85 VIN.n6 VIN.t4 20.2046
R86 VIN.n6 VIN.t3 20.2046
R87 VIN VIN.n3 13.0889
R88 VIN.n0 VIN.t6 3.87014
R89 VIN.n0 VIN.t7 3.87014
R90 VIN.n2 VIN.t5 3.87014
R91 VIN.n2 VIN.t8 3.87014
R92 VIN.n7 VIN.n5 3.27636
R93 VIN.n3 VIN.n1 3.16429
R94 VIN VIN.n7 1.64274
R95 VOUT.n5 VOUT.t4 263.224
R96 VOUT.n7 VOUT.n6 239.745
R97 VOUT.n5 VOUT.n4 239.745
R98 VOUT.n1 VOUT.t8 86.4052
R99 VOUT.n1 VOUT.n0 79.3719
R100 VOUT.n3 VOUT.n2 79.3719
R101 VOUT.n6 VOUT.t1 20.2046
R102 VOUT.n6 VOUT.t0 20.2046
R103 VOUT.n4 VOUT.t3 20.2046
R104 VOUT.n4 VOUT.t2 20.2046
R105 VOUT VOUT.n7 12.5371
R106 VOUT.n2 VOUT.t6 3.87014
R107 VOUT.n2 VOUT.t9 3.87014
R108 VOUT.n0 VOUT.t5 3.87014
R109 VOUT.n0 VOUT.t7 3.87014
R110 VOUT.n7 VOUT.n5 3.27636
R111 VOUT.n3 VOUT.n1 3.16429
R112 VOUT VOUT.n3 1.70309
R113 VCC.n515 VCC.n39 389.269
R114 VCC.n513 VCC.n43 389.269
R115 VCC.n252 VCC.n172 389.269
R116 VCC.n254 VCC.n170 389.269
R117 VCC.n448 VCC.t9 269.555
R118 VCC.n187 VCC.t5 269.555
R119 VCC.n513 VCC.n512 185
R120 VCC.n514 VCC.n513 185
R121 VCC.n44 VCC.n42 185
R122 VCC.n42 VCC.n40 185
R123 VCC.n431 VCC.n430 185
R124 VCC.n430 VCC.n429 185
R125 VCC.n47 VCC.n46 185
R126 VCC.n428 VCC.n47 185
R127 VCC.n426 VCC.n425 185
R128 VCC.n427 VCC.n426 185
R129 VCC.n51 VCC.n50 185
R130 VCC.n50 VCC.n49 185
R131 VCC.n421 VCC.n420 185
R132 VCC.n420 VCC.n419 185
R133 VCC.n54 VCC.n53 185
R134 VCC.n418 VCC.n54 185
R135 VCC.n416 VCC.n415 185
R136 VCC.n417 VCC.n416 185
R137 VCC.n58 VCC.n57 185
R138 VCC.n57 VCC.n56 185
R139 VCC.n411 VCC.n410 185
R140 VCC.n410 VCC.n409 185
R141 VCC.n61 VCC.n60 185
R142 VCC.n408 VCC.n61 185
R143 VCC.n406 VCC.n405 185
R144 VCC.n407 VCC.n406 185
R145 VCC.n65 VCC.n64 185
R146 VCC.n64 VCC.n63 185
R147 VCC.n401 VCC.n400 185
R148 VCC.n400 VCC.n399 185
R149 VCC.n68 VCC.n67 185
R150 VCC.n398 VCC.n68 185
R151 VCC.n396 VCC.n395 185
R152 VCC.n397 VCC.n396 185
R153 VCC.n72 VCC.n71 185
R154 VCC.n71 VCC.n70 185
R155 VCC.n391 VCC.n390 185
R156 VCC.n390 VCC.n389 185
R157 VCC.n75 VCC.n74 185
R158 VCC.n388 VCC.n75 185
R159 VCC.n386 VCC.n385 185
R160 VCC.n387 VCC.n386 185
R161 VCC.n77 VCC.n76 185
R162 VCC.n378 VCC.n76 185
R163 VCC.n381 VCC.n380 185
R164 VCC.n380 VCC.n379 185
R165 VCC.n80 VCC.n79 185
R166 VCC.n376 VCC.n80 185
R167 VCC.n374 VCC.n373 185
R168 VCC.n375 VCC.n374 185
R169 VCC.n84 VCC.n83 185
R170 VCC.n83 VCC.n82 185
R171 VCC.n369 VCC.n368 185
R172 VCC.n368 VCC.n367 185
R173 VCC.n87 VCC.n86 185
R174 VCC.n366 VCC.n87 185
R175 VCC.n365 VCC.n364 185
R176 VCC.t2 VCC.n365 185
R177 VCC.n90 VCC.n89 185
R178 VCC.n89 VCC.n88 185
R179 VCC.n360 VCC.n359 185
R180 VCC.n359 VCC.n358 185
R181 VCC.n93 VCC.n92 185
R182 VCC.n94 VCC.n93 185
R183 VCC.n349 VCC.n348 185
R184 VCC.n350 VCC.n349 185
R185 VCC.n103 VCC.n102 185
R186 VCC.n102 VCC.n101 185
R187 VCC.n344 VCC.n343 185
R188 VCC.n343 VCC.n342 185
R189 VCC.n106 VCC.n105 185
R190 VCC.n107 VCC.n106 185
R191 VCC.n333 VCC.n332 185
R192 VCC.n334 VCC.n333 185
R193 VCC.n115 VCC.n114 185
R194 VCC.n114 VCC.n113 185
R195 VCC.n328 VCC.n327 185
R196 VCC.n327 VCC.n326 185
R197 VCC.n118 VCC.n117 185
R198 VCC.n119 VCC.n118 185
R199 VCC.n317 VCC.n316 185
R200 VCC.n318 VCC.n317 185
R201 VCC.n127 VCC.n126 185
R202 VCC.n126 VCC.n125 185
R203 VCC.n312 VCC.n311 185
R204 VCC.n311 VCC.n310 185
R205 VCC.n130 VCC.n129 185
R206 VCC.n301 VCC.n130 185
R207 VCC.n300 VCC.n299 185
R208 VCC.n302 VCC.n300 185
R209 VCC.n138 VCC.n137 185
R210 VCC.n137 VCC.n136 185
R211 VCC.n295 VCC.n294 185
R212 VCC.n294 VCC.n293 185
R213 VCC.n141 VCC.n140 185
R214 VCC.n142 VCC.n141 185
R215 VCC.n284 VCC.n283 185
R216 VCC.n285 VCC.n284 185
R217 VCC.n150 VCC.n149 185
R218 VCC.n149 VCC.n148 185
R219 VCC.n279 VCC.n278 185
R220 VCC.n278 VCC.n277 185
R221 VCC.n153 VCC.n152 185
R222 VCC.n154 VCC.n153 185
R223 VCC.n268 VCC.n267 185
R224 VCC.n269 VCC.n268 185
R225 VCC.n161 VCC.n160 185
R226 VCC.n166 VCC.n160 185
R227 VCC.n263 VCC.n262 185
R228 VCC.n262 VCC.n261 185
R229 VCC.n164 VCC.n163 185
R230 VCC.n165 VCC.n164 185
R231 VCC.n252 VCC.n251 185
R232 VCC.n253 VCC.n252 185
R233 VCC.n255 VCC.n254 185
R234 VCC.n254 VCC.n253 185
R235 VCC.n168 VCC.n167 185
R236 VCC.n167 VCC.n165 185
R237 VCC.n260 VCC.n259 185
R238 VCC.n261 VCC.n260 185
R239 VCC.n159 VCC.n158 185
R240 VCC.n166 VCC.n159 185
R241 VCC.n271 VCC.n270 185
R242 VCC.n270 VCC.n269 185
R243 VCC.n156 VCC.n155 185
R244 VCC.n155 VCC.n154 185
R245 VCC.n276 VCC.n275 185
R246 VCC.n277 VCC.n276 185
R247 VCC.n147 VCC.n146 185
R248 VCC.n148 VCC.n147 185
R249 VCC.n287 VCC.n286 185
R250 VCC.n286 VCC.n285 185
R251 VCC.n144 VCC.n143 185
R252 VCC.n143 VCC.n142 185
R253 VCC.n292 VCC.n291 185
R254 VCC.n293 VCC.n292 185
R255 VCC.n135 VCC.n134 185
R256 VCC.n136 VCC.n135 185
R257 VCC.n304 VCC.n303 185
R258 VCC.n303 VCC.n302 185
R259 VCC.n132 VCC.n131 185
R260 VCC.n301 VCC.n131 185
R261 VCC.n309 VCC.n308 185
R262 VCC.n310 VCC.n309 185
R263 VCC.n124 VCC.n123 185
R264 VCC.n125 VCC.n124 185
R265 VCC.n320 VCC.n319 185
R266 VCC.n319 VCC.n318 185
R267 VCC.n121 VCC.n120 185
R268 VCC.n120 VCC.n119 185
R269 VCC.n325 VCC.n324 185
R270 VCC.n326 VCC.n325 185
R271 VCC.n112 VCC.n111 185
R272 VCC.n113 VCC.n112 185
R273 VCC.n336 VCC.n335 185
R274 VCC.n335 VCC.n334 185
R275 VCC.n109 VCC.n108 185
R276 VCC.n108 VCC.n107 185
R277 VCC.n341 VCC.n340 185
R278 VCC.n342 VCC.n341 185
R279 VCC.n100 VCC.n99 185
R280 VCC.n101 VCC.n100 185
R281 VCC.n352 VCC.n351 185
R282 VCC.n351 VCC.n350 185
R283 VCC.n97 VCC.n95 185
R284 VCC.n95 VCC.n94 185
R285 VCC.n357 VCC.n356 185
R286 VCC.n358 VCC.n357 185
R287 VCC.n96 VCC.n2 185
R288 VCC.n96 VCC.n88 185
R289 VCC.n558 VCC.n3 185
R290 VCC.t2 VCC.n3 185
R291 VCC.n557 VCC.n4 185
R292 VCC.n366 VCC.n4 185
R293 VCC.n556 VCC.n5 185
R294 VCC.n367 VCC.n5 185
R295 VCC.n81 VCC.n6 185
R296 VCC.n82 VCC.n81 185
R297 VCC.n552 VCC.n8 185
R298 VCC.n375 VCC.n8 185
R299 VCC.n551 VCC.n9 185
R300 VCC.n376 VCC.n9 185
R301 VCC.n550 VCC.n10 185
R302 VCC.n379 VCC.n10 185
R303 VCC.n377 VCC.n11 185
R304 VCC.n378 VCC.n377 185
R305 VCC.n546 VCC.n13 185
R306 VCC.n387 VCC.n13 185
R307 VCC.n545 VCC.n14 185
R308 VCC.n388 VCC.n14 185
R309 VCC.n544 VCC.n15 185
R310 VCC.n389 VCC.n15 185
R311 VCC.n69 VCC.n16 185
R312 VCC.n70 VCC.n69 185
R313 VCC.n540 VCC.n18 185
R314 VCC.n397 VCC.n18 185
R315 VCC.n539 VCC.n19 185
R316 VCC.n398 VCC.n19 185
R317 VCC.n538 VCC.n20 185
R318 VCC.n399 VCC.n20 185
R319 VCC.n62 VCC.n21 185
R320 VCC.n63 VCC.n62 185
R321 VCC.n534 VCC.n23 185
R322 VCC.n407 VCC.n23 185
R323 VCC.n533 VCC.n24 185
R324 VCC.n408 VCC.n24 185
R325 VCC.n532 VCC.n25 185
R326 VCC.n409 VCC.n25 185
R327 VCC.n55 VCC.n26 185
R328 VCC.n56 VCC.n55 185
R329 VCC.n528 VCC.n28 185
R330 VCC.n417 VCC.n28 185
R331 VCC.n527 VCC.n29 185
R332 VCC.n418 VCC.n29 185
R333 VCC.n526 VCC.n30 185
R334 VCC.n419 VCC.n30 185
R335 VCC.n48 VCC.n31 185
R336 VCC.n49 VCC.n48 185
R337 VCC.n522 VCC.n33 185
R338 VCC.n427 VCC.n33 185
R339 VCC.n521 VCC.n34 185
R340 VCC.n428 VCC.n34 185
R341 VCC.n520 VCC.n35 185
R342 VCC.n429 VCC.n35 185
R343 VCC.n38 VCC.n36 185
R344 VCC.n40 VCC.n38 185
R345 VCC.n516 VCC.n515 185
R346 VCC.n515 VCC.n514 185
R347 VCC.n510 VCC.n43 185
R348 VCC.n509 VCC.n508 185
R349 VCC.n506 VCC.n434 185
R350 VCC.n504 VCC.n503 185
R351 VCC.n502 VCC.n435 185
R352 VCC.n501 VCC.n500 185
R353 VCC.n498 VCC.n436 185
R354 VCC.n496 VCC.n495 185
R355 VCC.n494 VCC.n437 185
R356 VCC.n493 VCC.n492 185
R357 VCC.n490 VCC.n438 185
R358 VCC.n488 VCC.n487 185
R359 VCC.n486 VCC.n439 185
R360 VCC.n485 VCC.n484 185
R361 VCC.n482 VCC.n440 185
R362 VCC.n480 VCC.n479 185
R363 VCC.n478 VCC.n441 185
R364 VCC.n477 VCC.n476 185
R365 VCC.n474 VCC.n442 185
R366 VCC.n472 VCC.n471 185
R367 VCC.n470 VCC.n443 185
R368 VCC.n469 VCC.n468 185
R369 VCC.n466 VCC.n444 185
R370 VCC.n464 VCC.n463 185
R371 VCC.n462 VCC.n445 185
R372 VCC.n461 VCC.n460 185
R373 VCC.n458 VCC.n446 185
R374 VCC.n456 VCC.n455 185
R375 VCC.n454 VCC.n447 185
R376 VCC.n452 VCC.n451 185
R377 VCC.n39 VCC.n37 185
R378 VCC.n41 VCC.n39 185
R379 VCC.n170 VCC.n169 185
R380 VCC.n191 VCC.n190 185
R381 VCC.n193 VCC.n186 185
R382 VCC.n186 VCC.n171 185
R383 VCC.n195 VCC.n194 185
R384 VCC.n197 VCC.n185 185
R385 VCC.n200 VCC.n199 185
R386 VCC.n201 VCC.n184 185
R387 VCC.n203 VCC.n202 185
R388 VCC.n205 VCC.n183 185
R389 VCC.n208 VCC.n207 185
R390 VCC.n209 VCC.n182 185
R391 VCC.n211 VCC.n210 185
R392 VCC.n213 VCC.n181 185
R393 VCC.n216 VCC.n215 185
R394 VCC.n217 VCC.n180 185
R395 VCC.n219 VCC.n218 185
R396 VCC.n221 VCC.n179 185
R397 VCC.n224 VCC.n223 185
R398 VCC.n225 VCC.n178 185
R399 VCC.n227 VCC.n226 185
R400 VCC.n229 VCC.n177 185
R401 VCC.n232 VCC.n231 185
R402 VCC.n233 VCC.n176 185
R403 VCC.n235 VCC.n234 185
R404 VCC.n237 VCC.n175 185
R405 VCC.n240 VCC.n239 185
R406 VCC.n241 VCC.n174 185
R407 VCC.n243 VCC.n242 185
R408 VCC.n245 VCC.n173 185
R409 VCC.n248 VCC.n247 185
R410 VCC.n249 VCC.n172 185
R411 VCC.n448 VCC.t11 184.262
R412 VCC.n187 VCC.t8 184.262
R413 VCC.n252 VCC.n164 146.341
R414 VCC.n262 VCC.n164 146.341
R415 VCC.n262 VCC.n160 146.341
R416 VCC.n268 VCC.n160 146.341
R417 VCC.n268 VCC.n153 146.341
R418 VCC.n278 VCC.n153 146.341
R419 VCC.n278 VCC.n149 146.341
R420 VCC.n284 VCC.n149 146.341
R421 VCC.n284 VCC.n141 146.341
R422 VCC.n294 VCC.n141 146.341
R423 VCC.n294 VCC.n137 146.341
R424 VCC.n300 VCC.n137 146.341
R425 VCC.n300 VCC.n130 146.341
R426 VCC.n311 VCC.n130 146.341
R427 VCC.n311 VCC.n126 146.341
R428 VCC.n317 VCC.n126 146.341
R429 VCC.n317 VCC.n118 146.341
R430 VCC.n327 VCC.n118 146.341
R431 VCC.n327 VCC.n114 146.341
R432 VCC.n333 VCC.n114 146.341
R433 VCC.n333 VCC.n106 146.341
R434 VCC.n343 VCC.n106 146.341
R435 VCC.n343 VCC.n102 146.341
R436 VCC.n349 VCC.n102 146.341
R437 VCC.n349 VCC.n93 146.341
R438 VCC.n359 VCC.n93 146.341
R439 VCC.n359 VCC.n89 146.341
R440 VCC.n365 VCC.n89 146.341
R441 VCC.n365 VCC.n87 146.341
R442 VCC.n368 VCC.n87 146.341
R443 VCC.n368 VCC.n83 146.341
R444 VCC.n374 VCC.n83 146.341
R445 VCC.n374 VCC.n80 146.341
R446 VCC.n380 VCC.n80 146.341
R447 VCC.n380 VCC.n76 146.341
R448 VCC.n386 VCC.n76 146.341
R449 VCC.n386 VCC.n75 146.341
R450 VCC.n390 VCC.n75 146.341
R451 VCC.n390 VCC.n71 146.341
R452 VCC.n396 VCC.n71 146.341
R453 VCC.n396 VCC.n68 146.341
R454 VCC.n400 VCC.n68 146.341
R455 VCC.n400 VCC.n64 146.341
R456 VCC.n406 VCC.n64 146.341
R457 VCC.n406 VCC.n61 146.341
R458 VCC.n410 VCC.n61 146.341
R459 VCC.n410 VCC.n57 146.341
R460 VCC.n416 VCC.n57 146.341
R461 VCC.n416 VCC.n54 146.341
R462 VCC.n420 VCC.n54 146.341
R463 VCC.n420 VCC.n50 146.341
R464 VCC.n426 VCC.n50 146.341
R465 VCC.n426 VCC.n47 146.341
R466 VCC.n430 VCC.n47 146.341
R467 VCC.n430 VCC.n42 146.341
R468 VCC.n513 VCC.n42 146.341
R469 VCC.n254 VCC.n167 146.341
R470 VCC.n260 VCC.n167 146.341
R471 VCC.n260 VCC.n159 146.341
R472 VCC.n270 VCC.n159 146.341
R473 VCC.n270 VCC.n155 146.341
R474 VCC.n276 VCC.n155 146.341
R475 VCC.n276 VCC.n147 146.341
R476 VCC.n286 VCC.n147 146.341
R477 VCC.n286 VCC.n143 146.341
R478 VCC.n292 VCC.n143 146.341
R479 VCC.n292 VCC.n135 146.341
R480 VCC.n303 VCC.n135 146.341
R481 VCC.n303 VCC.n131 146.341
R482 VCC.n309 VCC.n131 146.341
R483 VCC.n309 VCC.n124 146.341
R484 VCC.n319 VCC.n124 146.341
R485 VCC.n319 VCC.n120 146.341
R486 VCC.n325 VCC.n120 146.341
R487 VCC.n325 VCC.n112 146.341
R488 VCC.n335 VCC.n112 146.341
R489 VCC.n335 VCC.n108 146.341
R490 VCC.n341 VCC.n108 146.341
R491 VCC.n341 VCC.n100 146.341
R492 VCC.n351 VCC.n100 146.341
R493 VCC.n351 VCC.n95 146.341
R494 VCC.n357 VCC.n95 146.341
R495 VCC.n357 VCC.n96 146.341
R496 VCC.n96 VCC.n3 146.341
R497 VCC.n4 VCC.n3 146.341
R498 VCC.n5 VCC.n4 146.341
R499 VCC.n81 VCC.n5 146.341
R500 VCC.n81 VCC.n8 146.341
R501 VCC.n9 VCC.n8 146.341
R502 VCC.n10 VCC.n9 146.341
R503 VCC.n377 VCC.n10 146.341
R504 VCC.n377 VCC.n13 146.341
R505 VCC.n14 VCC.n13 146.341
R506 VCC.n15 VCC.n14 146.341
R507 VCC.n69 VCC.n15 146.341
R508 VCC.n69 VCC.n18 146.341
R509 VCC.n19 VCC.n18 146.341
R510 VCC.n20 VCC.n19 146.341
R511 VCC.n62 VCC.n20 146.341
R512 VCC.n62 VCC.n23 146.341
R513 VCC.n24 VCC.n23 146.341
R514 VCC.n25 VCC.n24 146.341
R515 VCC.n55 VCC.n25 146.341
R516 VCC.n55 VCC.n28 146.341
R517 VCC.n29 VCC.n28 146.341
R518 VCC.n30 VCC.n29 146.341
R519 VCC.n48 VCC.n30 146.341
R520 VCC.n48 VCC.n33 146.341
R521 VCC.n34 VCC.n33 146.341
R522 VCC.n35 VCC.n34 146.341
R523 VCC.n38 VCC.n35 146.341
R524 VCC.n515 VCC.n38 146.341
R525 VCC.n449 VCC.t12 113.085
R526 VCC.n188 VCC.t7 113.085
R527 VCC.n451 VCC.n39 99.5127
R528 VCC.n456 VCC.n447 99.5127
R529 VCC.n460 VCC.n458 99.5127
R530 VCC.n464 VCC.n445 99.5127
R531 VCC.n468 VCC.n466 99.5127
R532 VCC.n472 VCC.n443 99.5127
R533 VCC.n476 VCC.n474 99.5127
R534 VCC.n480 VCC.n441 99.5127
R535 VCC.n484 VCC.n482 99.5127
R536 VCC.n488 VCC.n439 99.5127
R537 VCC.n492 VCC.n490 99.5127
R538 VCC.n496 VCC.n437 99.5127
R539 VCC.n500 VCC.n498 99.5127
R540 VCC.n504 VCC.n435 99.5127
R541 VCC.n508 VCC.n506 99.5127
R542 VCC.n190 VCC.n186 99.5127
R543 VCC.n195 VCC.n186 99.5127
R544 VCC.n199 VCC.n197 99.5127
R545 VCC.n203 VCC.n184 99.5127
R546 VCC.n207 VCC.n205 99.5127
R547 VCC.n211 VCC.n182 99.5127
R548 VCC.n215 VCC.n213 99.5127
R549 VCC.n219 VCC.n180 99.5127
R550 VCC.n223 VCC.n221 99.5127
R551 VCC.n227 VCC.n178 99.5127
R552 VCC.n231 VCC.n229 99.5127
R553 VCC.n235 VCC.n176 99.5127
R554 VCC.n239 VCC.n237 99.5127
R555 VCC.n243 VCC.n174 99.5127
R556 VCC.n247 VCC.n245 99.5127
R557 VCC.n507 VCC.n41 72.8958
R558 VCC.n505 VCC.n41 72.8958
R559 VCC.n499 VCC.n41 72.8958
R560 VCC.n497 VCC.n41 72.8958
R561 VCC.n491 VCC.n41 72.8958
R562 VCC.n489 VCC.n41 72.8958
R563 VCC.n483 VCC.n41 72.8958
R564 VCC.n481 VCC.n41 72.8958
R565 VCC.n475 VCC.n41 72.8958
R566 VCC.n473 VCC.n41 72.8958
R567 VCC.n467 VCC.n41 72.8958
R568 VCC.n465 VCC.n41 72.8958
R569 VCC.n459 VCC.n41 72.8958
R570 VCC.n457 VCC.n41 72.8958
R571 VCC.n450 VCC.n41 72.8958
R572 VCC.n189 VCC.n171 72.8958
R573 VCC.n196 VCC.n171 72.8958
R574 VCC.n198 VCC.n171 72.8958
R575 VCC.n204 VCC.n171 72.8958
R576 VCC.n206 VCC.n171 72.8958
R577 VCC.n212 VCC.n171 72.8958
R578 VCC.n214 VCC.n171 72.8958
R579 VCC.n220 VCC.n171 72.8958
R580 VCC.n222 VCC.n171 72.8958
R581 VCC.n228 VCC.n171 72.8958
R582 VCC.n230 VCC.n171 72.8958
R583 VCC.n236 VCC.n171 72.8958
R584 VCC.n238 VCC.n171 72.8958
R585 VCC.n244 VCC.n171 72.8958
R586 VCC.n246 VCC.n171 72.8958
R587 VCC.n449 VCC.n448 71.1763
R588 VCC.n188 VCC.n187 71.1763
R589 VCC.n253 VCC.n171 67.9661
R590 VCC.n514 VCC.n41 67.9661
R591 VCC.n450 VCC.n447 39.2114
R592 VCC.n458 VCC.n457 39.2114
R593 VCC.n459 VCC.n445 39.2114
R594 VCC.n466 VCC.n465 39.2114
R595 VCC.n467 VCC.n443 39.2114
R596 VCC.n474 VCC.n473 39.2114
R597 VCC.n475 VCC.n441 39.2114
R598 VCC.n482 VCC.n481 39.2114
R599 VCC.n483 VCC.n439 39.2114
R600 VCC.n490 VCC.n489 39.2114
R601 VCC.n491 VCC.n437 39.2114
R602 VCC.n498 VCC.n497 39.2114
R603 VCC.n499 VCC.n435 39.2114
R604 VCC.n506 VCC.n505 39.2114
R605 VCC.n507 VCC.n43 39.2114
R606 VCC.n189 VCC.n170 39.2114
R607 VCC.n196 VCC.n195 39.2114
R608 VCC.n199 VCC.n198 39.2114
R609 VCC.n204 VCC.n203 39.2114
R610 VCC.n207 VCC.n206 39.2114
R611 VCC.n212 VCC.n211 39.2114
R612 VCC.n215 VCC.n214 39.2114
R613 VCC.n220 VCC.n219 39.2114
R614 VCC.n223 VCC.n222 39.2114
R615 VCC.n228 VCC.n227 39.2114
R616 VCC.n231 VCC.n230 39.2114
R617 VCC.n236 VCC.n235 39.2114
R618 VCC.n239 VCC.n238 39.2114
R619 VCC.n244 VCC.n243 39.2114
R620 VCC.n247 VCC.n246 39.2114
R621 VCC.n508 VCC.n507 39.2114
R622 VCC.n505 VCC.n504 39.2114
R623 VCC.n500 VCC.n499 39.2114
R624 VCC.n497 VCC.n496 39.2114
R625 VCC.n492 VCC.n491 39.2114
R626 VCC.n489 VCC.n488 39.2114
R627 VCC.n484 VCC.n483 39.2114
R628 VCC.n481 VCC.n480 39.2114
R629 VCC.n476 VCC.n475 39.2114
R630 VCC.n473 VCC.n472 39.2114
R631 VCC.n468 VCC.n467 39.2114
R632 VCC.n465 VCC.n464 39.2114
R633 VCC.n460 VCC.n459 39.2114
R634 VCC.n457 VCC.n456 39.2114
R635 VCC.n451 VCC.n450 39.2114
R636 VCC.n190 VCC.n189 39.2114
R637 VCC.n197 VCC.n196 39.2114
R638 VCC.n198 VCC.n184 39.2114
R639 VCC.n205 VCC.n204 39.2114
R640 VCC.n206 VCC.n182 39.2114
R641 VCC.n213 VCC.n212 39.2114
R642 VCC.n214 VCC.n180 39.2114
R643 VCC.n221 VCC.n220 39.2114
R644 VCC.n222 VCC.n178 39.2114
R645 VCC.n229 VCC.n228 39.2114
R646 VCC.n230 VCC.n176 39.2114
R647 VCC.n237 VCC.n236 39.2114
R648 VCC.n238 VCC.n174 39.2114
R649 VCC.n245 VCC.n244 39.2114
R650 VCC.n246 VCC.n172 39.2114
R651 VCC.n253 VCC.n165 37.9701
R652 VCC.n261 VCC.n165 37.9701
R653 VCC.n261 VCC.n166 37.9701
R654 VCC.n269 VCC.n154 37.9701
R655 VCC.n277 VCC.n154 37.9701
R656 VCC.n277 VCC.n148 37.9701
R657 VCC.n285 VCC.n148 37.9701
R658 VCC.n285 VCC.n142 37.9701
R659 VCC.n293 VCC.n142 37.9701
R660 VCC.n293 VCC.n136 37.9701
R661 VCC.n302 VCC.n136 37.9701
R662 VCC.n302 VCC.n301 37.9701
R663 VCC.n310 VCC.n125 37.9701
R664 VCC.n318 VCC.n125 37.9701
R665 VCC.n318 VCC.n119 37.9701
R666 VCC.n326 VCC.n119 37.9701
R667 VCC.n326 VCC.n113 37.9701
R668 VCC.n334 VCC.n113 37.9701
R669 VCC.n342 VCC.n107 37.9701
R670 VCC.n342 VCC.n101 37.9701
R671 VCC.n350 VCC.n101 37.9701
R672 VCC.n350 VCC.n94 37.9701
R673 VCC.n358 VCC.n94 37.9701
R674 VCC.n358 VCC.n88 37.9701
R675 VCC.t2 VCC.n88 37.9701
R676 VCC.n366 VCC.t2 37.9701
R677 VCC.n367 VCC.n366 37.9701
R678 VCC.n367 VCC.n82 37.9701
R679 VCC.n375 VCC.n82 37.9701
R680 VCC.n376 VCC.n375 37.9701
R681 VCC.n379 VCC.n376 37.9701
R682 VCC.n379 VCC.n378 37.9701
R683 VCC.n388 VCC.n387 37.9701
R684 VCC.n389 VCC.n388 37.9701
R685 VCC.n389 VCC.n70 37.9701
R686 VCC.n397 VCC.n70 37.9701
R687 VCC.n398 VCC.n397 37.9701
R688 VCC.n399 VCC.n398 37.9701
R689 VCC.n407 VCC.n63 37.9701
R690 VCC.n408 VCC.n407 37.9701
R691 VCC.n409 VCC.n408 37.9701
R692 VCC.n409 VCC.n56 37.9701
R693 VCC.n417 VCC.n56 37.9701
R694 VCC.n418 VCC.n417 37.9701
R695 VCC.n419 VCC.n418 37.9701
R696 VCC.n419 VCC.n49 37.9701
R697 VCC.n427 VCC.n49 37.9701
R698 VCC.n429 VCC.n428 37.9701
R699 VCC.n429 VCC.n40 37.9701
R700 VCC.n514 VCC.n40 37.9701
R701 VCC.n166 VCC.t6 30.3762
R702 VCC.n428 VCC.t10 30.3762
R703 VCC.n517 VCC.n37 29.5539
R704 VCC.n511 VCC.n510 29.5539
R705 VCC.n256 VCC.n169 29.5539
R706 VCC.n250 VCC.n249 29.5539
R707 VCC.n453 VCC.n449 29.2853
R708 VCC.n192 VCC.n188 29.2853
R709 VCC.n310 VCC.t3 25.8198
R710 VCC.n399 VCC.t4 25.8198
R711 VCC.n334 VCC.t0 25.0605
R712 VCC.n387 VCC.t1 25.0605
R713 VCC.n251 VCC.n163 19.3944
R714 VCC.n263 VCC.n163 19.3944
R715 VCC.n263 VCC.n161 19.3944
R716 VCC.n267 VCC.n161 19.3944
R717 VCC.n267 VCC.n152 19.3944
R718 VCC.n279 VCC.n152 19.3944
R719 VCC.n279 VCC.n150 19.3944
R720 VCC.n283 VCC.n150 19.3944
R721 VCC.n283 VCC.n140 19.3944
R722 VCC.n295 VCC.n140 19.3944
R723 VCC.n295 VCC.n138 19.3944
R724 VCC.n299 VCC.n138 19.3944
R725 VCC.n299 VCC.n129 19.3944
R726 VCC.n312 VCC.n129 19.3944
R727 VCC.n312 VCC.n127 19.3944
R728 VCC.n316 VCC.n127 19.3944
R729 VCC.n316 VCC.n117 19.3944
R730 VCC.n328 VCC.n117 19.3944
R731 VCC.n328 VCC.n115 19.3944
R732 VCC.n332 VCC.n115 19.3944
R733 VCC.n332 VCC.n105 19.3944
R734 VCC.n344 VCC.n105 19.3944
R735 VCC.n344 VCC.n103 19.3944
R736 VCC.n348 VCC.n103 19.3944
R737 VCC.n348 VCC.n92 19.3944
R738 VCC.n360 VCC.n92 19.3944
R739 VCC.n360 VCC.n90 19.3944
R740 VCC.n364 VCC.n90 19.3944
R741 VCC.n364 VCC.n86 19.3944
R742 VCC.n369 VCC.n86 19.3944
R743 VCC.n369 VCC.n84 19.3944
R744 VCC.n373 VCC.n84 19.3944
R745 VCC.n373 VCC.n79 19.3944
R746 VCC.n381 VCC.n79 19.3944
R747 VCC.n381 VCC.n77 19.3944
R748 VCC.n385 VCC.n77 19.3944
R749 VCC.n385 VCC.n74 19.3944
R750 VCC.n391 VCC.n74 19.3944
R751 VCC.n391 VCC.n72 19.3944
R752 VCC.n395 VCC.n72 19.3944
R753 VCC.n395 VCC.n67 19.3944
R754 VCC.n401 VCC.n67 19.3944
R755 VCC.n401 VCC.n65 19.3944
R756 VCC.n405 VCC.n65 19.3944
R757 VCC.n405 VCC.n60 19.3944
R758 VCC.n411 VCC.n60 19.3944
R759 VCC.n411 VCC.n58 19.3944
R760 VCC.n415 VCC.n58 19.3944
R761 VCC.n415 VCC.n53 19.3944
R762 VCC.n421 VCC.n53 19.3944
R763 VCC.n421 VCC.n51 19.3944
R764 VCC.n425 VCC.n51 19.3944
R765 VCC.n425 VCC.n46 19.3944
R766 VCC.n431 VCC.n46 19.3944
R767 VCC.n431 VCC.n44 19.3944
R768 VCC.n512 VCC.n44 19.3944
R769 VCC.n255 VCC.n168 19.3944
R770 VCC.n259 VCC.n168 19.3944
R771 VCC.n259 VCC.n158 19.3944
R772 VCC.n271 VCC.n158 19.3944
R773 VCC.n271 VCC.n156 19.3944
R774 VCC.n275 VCC.n156 19.3944
R775 VCC.n275 VCC.n146 19.3944
R776 VCC.n287 VCC.n146 19.3944
R777 VCC.n287 VCC.n144 19.3944
R778 VCC.n291 VCC.n144 19.3944
R779 VCC.n291 VCC.n134 19.3944
R780 VCC.n304 VCC.n134 19.3944
R781 VCC.n304 VCC.n132 19.3944
R782 VCC.n308 VCC.n132 19.3944
R783 VCC.n308 VCC.n123 19.3944
R784 VCC.n320 VCC.n123 19.3944
R785 VCC.n320 VCC.n121 19.3944
R786 VCC.n324 VCC.n121 19.3944
R787 VCC.n324 VCC.n111 19.3944
R788 VCC.n336 VCC.n111 19.3944
R789 VCC.n336 VCC.n109 19.3944
R790 VCC.n340 VCC.n109 19.3944
R791 VCC.n340 VCC.n99 19.3944
R792 VCC.n352 VCC.n99 19.3944
R793 VCC.n352 VCC.n97 19.3944
R794 VCC.n356 VCC.n97 19.3944
R795 VCC.n356 VCC.n2 19.3944
R796 VCC.n558 VCC.n2 19.3944
R797 VCC.n558 VCC.n557 19.3944
R798 VCC.n557 VCC.n556 19.3944
R799 VCC.n556 VCC.n6 19.3944
R800 VCC.n552 VCC.n6 19.3944
R801 VCC.n552 VCC.n551 19.3944
R802 VCC.n551 VCC.n550 19.3944
R803 VCC.n550 VCC.n11 19.3944
R804 VCC.n546 VCC.n11 19.3944
R805 VCC.n546 VCC.n545 19.3944
R806 VCC.n545 VCC.n544 19.3944
R807 VCC.n544 VCC.n16 19.3944
R808 VCC.n540 VCC.n16 19.3944
R809 VCC.n540 VCC.n539 19.3944
R810 VCC.n539 VCC.n538 19.3944
R811 VCC.n538 VCC.n21 19.3944
R812 VCC.n534 VCC.n21 19.3944
R813 VCC.n534 VCC.n533 19.3944
R814 VCC.n533 VCC.n532 19.3944
R815 VCC.n532 VCC.n26 19.3944
R816 VCC.n528 VCC.n26 19.3944
R817 VCC.n528 VCC.n527 19.3944
R818 VCC.n527 VCC.n526 19.3944
R819 VCC.n526 VCC.n31 19.3944
R820 VCC.n522 VCC.n31 19.3944
R821 VCC.n522 VCC.n521 19.3944
R822 VCC.n521 VCC.n520 19.3944
R823 VCC.n520 VCC.n36 19.3944
R824 VCC.n516 VCC.n36 19.3944
R825 VCC.t0 VCC.n107 12.9102
R826 VCC.n378 VCC.t1 12.9102
R827 VCC.n301 VCC.t3 12.1508
R828 VCC.t4 VCC.n63 12.1508
R829 VCC.n452 VCC.n37 10.6151
R830 VCC.n455 VCC.n454 10.6151
R831 VCC.n455 VCC.n446 10.6151
R832 VCC.n461 VCC.n446 10.6151
R833 VCC.n462 VCC.n461 10.6151
R834 VCC.n463 VCC.n462 10.6151
R835 VCC.n463 VCC.n444 10.6151
R836 VCC.n469 VCC.n444 10.6151
R837 VCC.n470 VCC.n469 10.6151
R838 VCC.n471 VCC.n470 10.6151
R839 VCC.n471 VCC.n442 10.6151
R840 VCC.n477 VCC.n442 10.6151
R841 VCC.n478 VCC.n477 10.6151
R842 VCC.n479 VCC.n478 10.6151
R843 VCC.n479 VCC.n440 10.6151
R844 VCC.n485 VCC.n440 10.6151
R845 VCC.n486 VCC.n485 10.6151
R846 VCC.n487 VCC.n486 10.6151
R847 VCC.n487 VCC.n438 10.6151
R848 VCC.n493 VCC.n438 10.6151
R849 VCC.n494 VCC.n493 10.6151
R850 VCC.n495 VCC.n494 10.6151
R851 VCC.n495 VCC.n436 10.6151
R852 VCC.n501 VCC.n436 10.6151
R853 VCC.n502 VCC.n501 10.6151
R854 VCC.n503 VCC.n502 10.6151
R855 VCC.n503 VCC.n434 10.6151
R856 VCC.n509 VCC.n434 10.6151
R857 VCC.n510 VCC.n509 10.6151
R858 VCC.n191 VCC.n169 10.6151
R859 VCC.n194 VCC.n193 10.6151
R860 VCC.n194 VCC.n185 10.6151
R861 VCC.n200 VCC.n185 10.6151
R862 VCC.n201 VCC.n200 10.6151
R863 VCC.n202 VCC.n201 10.6151
R864 VCC.n202 VCC.n183 10.6151
R865 VCC.n208 VCC.n183 10.6151
R866 VCC.n209 VCC.n208 10.6151
R867 VCC.n210 VCC.n209 10.6151
R868 VCC.n210 VCC.n181 10.6151
R869 VCC.n216 VCC.n181 10.6151
R870 VCC.n217 VCC.n216 10.6151
R871 VCC.n218 VCC.n217 10.6151
R872 VCC.n218 VCC.n179 10.6151
R873 VCC.n224 VCC.n179 10.6151
R874 VCC.n225 VCC.n224 10.6151
R875 VCC.n226 VCC.n225 10.6151
R876 VCC.n226 VCC.n177 10.6151
R877 VCC.n232 VCC.n177 10.6151
R878 VCC.n233 VCC.n232 10.6151
R879 VCC.n234 VCC.n233 10.6151
R880 VCC.n234 VCC.n175 10.6151
R881 VCC.n240 VCC.n175 10.6151
R882 VCC.n241 VCC.n240 10.6151
R883 VCC.n242 VCC.n241 10.6151
R884 VCC.n242 VCC.n173 10.6151
R885 VCC.n248 VCC.n173 10.6151
R886 VCC.n249 VCC.n248 10.6151
R887 VCC.n557 VCC.n0 9.3005
R888 VCC.n556 VCC.n555 9.3005
R889 VCC.n554 VCC.n6 9.3005
R890 VCC.n553 VCC.n552 9.3005
R891 VCC.n551 VCC.n7 9.3005
R892 VCC.n550 VCC.n549 9.3005
R893 VCC.n548 VCC.n11 9.3005
R894 VCC.n547 VCC.n546 9.3005
R895 VCC.n545 VCC.n12 9.3005
R896 VCC.n544 VCC.n543 9.3005
R897 VCC.n542 VCC.n16 9.3005
R898 VCC.n541 VCC.n540 9.3005
R899 VCC.n539 VCC.n17 9.3005
R900 VCC.n538 VCC.n537 9.3005
R901 VCC.n536 VCC.n21 9.3005
R902 VCC.n535 VCC.n534 9.3005
R903 VCC.n533 VCC.n22 9.3005
R904 VCC.n532 VCC.n531 9.3005
R905 VCC.n530 VCC.n26 9.3005
R906 VCC.n529 VCC.n528 9.3005
R907 VCC.n527 VCC.n27 9.3005
R908 VCC.n526 VCC.n525 9.3005
R909 VCC.n524 VCC.n31 9.3005
R910 VCC.n523 VCC.n522 9.3005
R911 VCC.n521 VCC.n32 9.3005
R912 VCC.n520 VCC.n519 9.3005
R913 VCC.n518 VCC.n36 9.3005
R914 VCC.n517 VCC.n516 9.3005
R915 VCC.n163 VCC.n162 9.3005
R916 VCC.n264 VCC.n263 9.3005
R917 VCC.n265 VCC.n161 9.3005
R918 VCC.n267 VCC.n266 9.3005
R919 VCC.n152 VCC.n151 9.3005
R920 VCC.n280 VCC.n279 9.3005
R921 VCC.n281 VCC.n150 9.3005
R922 VCC.n283 VCC.n282 9.3005
R923 VCC.n140 VCC.n139 9.3005
R924 VCC.n296 VCC.n295 9.3005
R925 VCC.n297 VCC.n138 9.3005
R926 VCC.n299 VCC.n298 9.3005
R927 VCC.n129 VCC.n128 9.3005
R928 VCC.n313 VCC.n312 9.3005
R929 VCC.n314 VCC.n127 9.3005
R930 VCC.n316 VCC.n315 9.3005
R931 VCC.n117 VCC.n116 9.3005
R932 VCC.n329 VCC.n328 9.3005
R933 VCC.n330 VCC.n115 9.3005
R934 VCC.n332 VCC.n331 9.3005
R935 VCC.n105 VCC.n104 9.3005
R936 VCC.n345 VCC.n344 9.3005
R937 VCC.n346 VCC.n103 9.3005
R938 VCC.n348 VCC.n347 9.3005
R939 VCC.n92 VCC.n91 9.3005
R940 VCC.n361 VCC.n360 9.3005
R941 VCC.n362 VCC.n90 9.3005
R942 VCC.n364 VCC.n363 9.3005
R943 VCC.n86 VCC.n85 9.3005
R944 VCC.n370 VCC.n369 9.3005
R945 VCC.n371 VCC.n84 9.3005
R946 VCC.n373 VCC.n372 9.3005
R947 VCC.n79 VCC.n78 9.3005
R948 VCC.n382 VCC.n381 9.3005
R949 VCC.n383 VCC.n77 9.3005
R950 VCC.n385 VCC.n384 9.3005
R951 VCC.n74 VCC.n73 9.3005
R952 VCC.n392 VCC.n391 9.3005
R953 VCC.n393 VCC.n72 9.3005
R954 VCC.n395 VCC.n394 9.3005
R955 VCC.n67 VCC.n66 9.3005
R956 VCC.n402 VCC.n401 9.3005
R957 VCC.n403 VCC.n65 9.3005
R958 VCC.n405 VCC.n404 9.3005
R959 VCC.n60 VCC.n59 9.3005
R960 VCC.n412 VCC.n411 9.3005
R961 VCC.n413 VCC.n58 9.3005
R962 VCC.n415 VCC.n414 9.3005
R963 VCC.n53 VCC.n52 9.3005
R964 VCC.n422 VCC.n421 9.3005
R965 VCC.n423 VCC.n51 9.3005
R966 VCC.n425 VCC.n424 9.3005
R967 VCC.n46 VCC.n45 9.3005
R968 VCC.n432 VCC.n431 9.3005
R969 VCC.n433 VCC.n44 9.3005
R970 VCC.n512 VCC.n511 9.3005
R971 VCC.n251 VCC.n250 9.3005
R972 VCC.n256 VCC.n255 9.3005
R973 VCC.n257 VCC.n168 9.3005
R974 VCC.n259 VCC.n258 9.3005
R975 VCC.n158 VCC.n157 9.3005
R976 VCC.n272 VCC.n271 9.3005
R977 VCC.n273 VCC.n156 9.3005
R978 VCC.n275 VCC.n274 9.3005
R979 VCC.n146 VCC.n145 9.3005
R980 VCC.n288 VCC.n287 9.3005
R981 VCC.n289 VCC.n144 9.3005
R982 VCC.n291 VCC.n290 9.3005
R983 VCC.n134 VCC.n133 9.3005
R984 VCC.n305 VCC.n304 9.3005
R985 VCC.n306 VCC.n132 9.3005