* NGSPICE file created from opamp_sample_0009.ext - technology: sky130A

.subckt opamp_sample_0009 GND VOUT VDD VN VP CS_BIAS DIFFPAIR_BIAS
X0 GND.t80 CS_BIAS.t18 CS_BIAS.t19 GND.t44 sky130_fd_pr__nfet_01v8 ad=0.6864 pd=2.74 as=0.6864 ps=2.74 w=2.08 l=5.72
X1 a_n7516_558.t24 DIFFPAIR_BIAS.t4 GND.t87 GND.t86 sky130_fd_pr__nfet_01v8 ad=2.5128 pd=8.42 as=2.5128 ps=8.42 w=3.49 l=2.02
X2 GND.t185 GND.t183 GND.t184 GND.t110 sky130_fd_pr__nfet_01v8 ad=1.4976 pd=5.6 as=0 ps=0 w=2.08 l=5.72
X3 GND.t79 CS_BIAS.t16 CS_BIAS.t17 GND.t23 sky130_fd_pr__nfet_01v8 ad=0.6864 pd=2.74 as=0.6864 ps=2.74 w=2.08 l=5.72
X4 a_n11545_9494.t25 a_n11545_9494.t24 a_n11689_9690.t11 VDD.t92 sky130_fd_pr__pfet_01v8 ad=1.4976 pd=5.6 as=0.6864 ps=2.74 w=2.08 l=5.77
X5 VDD.t67 VDD.t65 VDD.t66 VDD.t25 sky130_fd_pr__pfet_01v8 ad=1.4976 pd=5.6 as=0 ps=0 w=2.08 l=5.77
X6 GND.t182 GND.t180 GND.t181 GND.t89 sky130_fd_pr__nfet_01v8 ad=1.4976 pd=5.6 as=0 ps=0 w=2.08 l=5.72
X7 a_n11545_9494.t7 VP.t0 a_n7516_558.t13 GND.t2 sky130_fd_pr__nfet_01v8 ad=0.9603 pd=3.57 as=0.9603 ps=3.57 w=2.91 l=5.42
X8 VOUT.t54 CS_BIAS.t20 GND.t78 GND.t34 sky130_fd_pr__nfet_01v8 ad=0.6864 pd=2.74 as=0.6864 ps=2.74 w=2.08 l=5.72
X9 VOUT.t53 CS_BIAS.t21 GND.t77 GND.t34 sky130_fd_pr__nfet_01v8 ad=0.6864 pd=2.74 as=0.6864 ps=2.74 w=2.08 l=5.72
X10 CS_BIAS.t15 CS_BIAS.t14 GND.t75 GND.t11 sky130_fd_pr__nfet_01v8 ad=1.4976 pd=5.6 as=0.6864 ps=2.74 w=2.08 l=5.72
X11 VOUT.t52 CS_BIAS.t22 GND.t76 GND.t34 sky130_fd_pr__nfet_01v8 ad=0.6864 pd=2.74 as=0.6864 ps=2.74 w=2.08 l=5.72
X12 a_n11545_9494.t26 VP.t1 a_n7516_558.t22 GND.t1 sky130_fd_pr__nfet_01v8 ad=0.9603 pd=3.57 as=0.9603 ps=3.57 w=2.91 l=5.42
X13 VDD.t108 a_n11545_9494.t28 a_n11689_9690.t12 VDD.t107 sky130_fd_pr__pfet_01v8 ad=0.6864 pd=2.74 as=0.6864 ps=2.74 w=2.08 l=5.77
X14 a_n17362_8608.t18 a_n11545_9494.t29 a_n7386_8166.t0 VDD.t90 sky130_fd_pr__pfet_01v8 ad=0.6864 pd=2.74 as=1.4976 ps=5.6 w=2.08 l=5.77
X15 a_n17362_8608.t17 a_n11545_9494.t30 a_n7386_8166.t2 VDD.t104 sky130_fd_pr__pfet_01v8 ad=0.6864 pd=2.74 as=1.4976 ps=5.6 w=2.08 l=5.77
X16 a_n11689_9690.t14 a_n11545_9494.t31 VDD.t106 VDD.t105 sky130_fd_pr__pfet_01v8 ad=1.4976 pd=5.6 as=0.6864 ps=2.74 w=2.08 l=5.77
X17 GND.t74 CS_BIAS.t23 VOUT.t51 GND.t19 sky130_fd_pr__nfet_01v8 ad=0.6864 pd=2.74 as=0.6864 ps=2.74 w=2.08 l=5.72
X18 VDD.t64 VDD.t62 VDD.t63 VDD.t50 sky130_fd_pr__pfet_01v8 ad=2.7288 pd=9.02 as=0 ps=0 w=3.79 l=4.11
X19 a_n11689_9690.t10 a_n11545_9494.t18 a_n11545_9494.t19 VDD.t104 sky130_fd_pr__pfet_01v8 ad=0.6864 pd=2.74 as=1.4976 ps=5.6 w=2.08 l=5.77
X20 GND.t179 GND.t177 GND.t178 GND.t147 sky130_fd_pr__nfet_01v8 ad=2.0952 pd=7.26 as=0 ps=0 w=2.91 l=5.42
X21 VDD.t61 VDD.t59 VDD.t60 VDD.t17 sky130_fd_pr__pfet_01v8 ad=1.4976 pd=5.6 as=0 ps=0 w=2.08 l=5.77
X22 DIFFPAIR_BIAS.t3 DIFFPAIR_BIAS.t2 GND.t187 GND.t186 sky130_fd_pr__nfet_01v8 ad=2.5128 pd=8.42 as=2.5128 ps=8.42 w=3.49 l=2.02
X23 GND.t176 GND.t174 GND.t175 GND.t134 sky130_fd_pr__nfet_01v8 ad=1.4976 pd=5.6 as=0 ps=0 w=2.08 l=5.72
X24 VDD.t58 VDD.t56 VDD.t57 VDD.t13 sky130_fd_pr__pfet_01v8 ad=2.7288 pd=9.02 as=0 ps=0 w=3.79 l=4.11
X25 a_n17362_8608.t19 VN.t0 a_n7516_558.t21 GND.t7 sky130_fd_pr__nfet_01v8 ad=0.9603 pd=3.57 as=0.9603 ps=3.57 w=2.91 l=5.42
X26 VOUT.t50 CS_BIAS.t24 GND.t73 GND.t15 sky130_fd_pr__nfet_01v8 ad=1.4976 pd=5.6 as=0.6864 ps=2.74 w=2.08 l=5.72
X27 VOUT.t49 CS_BIAS.t25 GND.t72 GND.t32 sky130_fd_pr__nfet_01v8 ad=0.6864 pd=2.74 as=1.4976 ps=5.6 w=2.08 l=5.72
X28 a_n11689_9690.t13 a_n11545_9494.t32 VDD.t103 VDD.t102 sky130_fd_pr__pfet_01v8 ad=0.6864 pd=2.74 as=0.6864 ps=2.74 w=2.08 l=5.77
X29 VOUT.t48 CS_BIAS.t26 GND.t71 GND.t25 sky130_fd_pr__nfet_01v8 ad=0.6864 pd=2.74 as=0.6864 ps=2.74 w=2.08 l=5.72
X30 GND.t70 CS_BIAS.t27 VOUT.t47 GND.t30 sky130_fd_pr__nfet_01v8 ad=0.6864 pd=2.74 as=0.6864 ps=2.74 w=2.08 l=5.72
X31 GND.t69 CS_BIAS.t28 VOUT.t46 GND.t30 sky130_fd_pr__nfet_01v8 ad=0.6864 pd=2.74 as=0.6864 ps=2.74 w=2.08 l=5.72
X32 a_n17362_8608.t10 VN.t1 a_n7516_558.t20 GND.t85 sky130_fd_pr__nfet_01v8 ad=0.9603 pd=3.57 as=2.0952 ps=7.26 w=2.91 l=5.42
X33 VOUT.t45 CS_BIAS.t29 GND.t64 GND.t25 sky130_fd_pr__nfet_01v8 ad=0.6864 pd=2.74 as=0.6864 ps=2.74 w=2.08 l=5.72
X34 VOUT.t44 CS_BIAS.t30 GND.t65 GND.t25 sky130_fd_pr__nfet_01v8 ad=0.6864 pd=2.74 as=0.6864 ps=2.74 w=2.08 l=5.72
X35 GND.t68 CS_BIAS.t31 VOUT.t43 GND.t30 sky130_fd_pr__nfet_01v8 ad=0.6864 pd=2.74 as=0.6864 ps=2.74 w=2.08 l=5.72
X36 VOUT.t42 CS_BIAS.t32 GND.t67 GND.t25 sky130_fd_pr__nfet_01v8 ad=0.6864 pd=2.74 as=0.6864 ps=2.74 w=2.08 l=5.72
X37 GND.t66 CS_BIAS.t33 VOUT.t41 GND.t30 sky130_fd_pr__nfet_01v8 ad=0.6864 pd=2.74 as=0.6864 ps=2.74 w=2.08 l=5.72
X38 a_n7516_558.t19 VN.t2 a_n17362_8608.t9 GND.t10 sky130_fd_pr__nfet_01v8 ad=2.0952 pd=7.26 as=0.9603 ps=3.57 w=2.91 l=5.42
X39 VDD.t55 VDD.t53 VDD.t54 VDD.t37 sky130_fd_pr__pfet_01v8 ad=2.7288 pd=9.02 as=0 ps=0 w=3.79 l=4.11
X40 a_n7516_558.t4 VP.t2 a_n11545_9494.t1 GND.t4 sky130_fd_pr__nfet_01v8 ad=0.9603 pd=3.57 as=0.9603 ps=3.57 w=2.91 l=5.42
X41 VOUT.t58 a_n7386_8166.t16 sky130_fd_pr__cap_mim_m3_1 l=14.21 w=18.87
X42 a_n17362_8608.t8 VN.t3 a_n7516_558.t18 GND.t81 sky130_fd_pr__nfet_01v8 ad=0.9603 pd=3.57 as=0.9603 ps=3.57 w=2.91 l=5.42
X43 CS_BIAS.t7 CS_BIAS.t6 GND.t63 GND.t34 sky130_fd_pr__nfet_01v8 ad=0.6864 pd=2.74 as=0.6864 ps=2.74 w=2.08 l=5.72
X44 a_n7386_8166.t13 a_n11545_9494.t33 a_n17362_8608.t16 VDD.t91 sky130_fd_pr__pfet_01v8 ad=0.6864 pd=2.74 as=0.6864 ps=2.74 w=2.08 l=5.77
X45 VOUT.t40 CS_BIAS.t34 GND.t62 GND.t34 sky130_fd_pr__nfet_01v8 ad=0.6864 pd=2.74 as=0.6864 ps=2.74 w=2.08 l=5.72
X46 GND.t173 GND.t171 GND.t172 GND.t126 sky130_fd_pr__nfet_01v8 ad=1.4976 pd=5.6 as=0 ps=0 w=2.08 l=5.72
X47 VOUT.t56 a_n17362_8608.t20 VDD.t11 VDD.t8 sky130_fd_pr__pfet_01v8 ad=1.2507 pd=4.45 as=2.7288 ps=9.02 w=3.79 l=4.11
X48 VDD.t52 VDD.t49 VDD.t51 VDD.t50 sky130_fd_pr__pfet_01v8 ad=2.7288 pd=9.02 as=0 ps=0 w=3.79 l=4.11
X49 VOUT.t39 CS_BIAS.t35 GND.t61 GND.t15 sky130_fd_pr__nfet_01v8 ad=1.4976 pd=5.6 as=0.6864 ps=2.74 w=2.08 l=5.72
X50 VDD.t48 VDD.t46 VDD.t47 VDD.t33 sky130_fd_pr__pfet_01v8 ad=1.4976 pd=5.6 as=0 ps=0 w=2.08 l=5.77
X51 a_n7516_558.t17 VN.t4 a_n17362_8608.t7 GND.t3 sky130_fd_pr__nfet_01v8 ad=0.9603 pd=3.57 as=0.9603 ps=3.57 w=2.91 l=5.42
X52 VDD.t101 a_n11545_9494.t34 a_n11689_9690.t3 VDD.t100 sky130_fd_pr__pfet_01v8 ad=0.6864 pd=2.74 as=1.4976 ps=5.6 w=2.08 l=5.77
X53 VOUT.t55 a_n17362_8608.t21 VDD.t10 VDD.t3 sky130_fd_pr__pfet_01v8 ad=1.2507 pd=4.45 as=2.7288 ps=9.02 w=3.79 l=4.11
X54 GND.t170 GND.t168 GND.t169 GND.t134 sky130_fd_pr__nfet_01v8 ad=1.4976 pd=5.6 as=0 ps=0 w=2.08 l=5.72
X55 GND.t167 GND.t165 GND.t166 GND.t134 sky130_fd_pr__nfet_01v8 ad=1.4976 pd=5.6 as=0 ps=0 w=2.08 l=5.72
X56 GND.t164 GND.t162 GND.t163 GND.t134 sky130_fd_pr__nfet_01v8 ad=1.4976 pd=5.6 as=0 ps=0 w=2.08 l=5.72
X57 CS_BIAS.t5 CS_BIAS.t4 GND.t58 GND.t32 sky130_fd_pr__nfet_01v8 ad=0.6864 pd=2.74 as=1.4976 ps=5.6 w=2.08 l=5.72
X58 a_n11545_9494.t23 a_n11545_9494.t22 a_n11689_9690.t9 VDD.t95 sky130_fd_pr__pfet_01v8 ad=0.6864 pd=2.74 as=0.6864 ps=2.74 w=2.08 l=5.77
X59 GND.t161 GND.t159 GND.t160 GND.t110 sky130_fd_pr__nfet_01v8 ad=1.4976 pd=5.6 as=0 ps=0 w=2.08 l=5.72
X60 a_n17362_8608.t6 VN.t5 a_n7516_558.t16 GND.t84 sky130_fd_pr__nfet_01v8 ad=0.9603 pd=3.57 as=2.0952 ps=7.26 w=2.91 l=5.42
X61 a_n7516_558.t6 VN.t6 a_n17362_8608.t4 GND.t5 sky130_fd_pr__nfet_01v8 ad=2.0952 pd=7.26 as=0.9603 ps=3.57 w=2.91 l=5.42
X62 VDD.t45 VDD.t43 VDD.t44 VDD.t29 sky130_fd_pr__pfet_01v8 ad=2.7288 pd=9.02 as=0 ps=0 w=3.79 l=4.11
X63 a_n13259_9690# a_n13259_9690# a_n13259_9690# VDD.t0 sky130_fd_pr__pfet_01v8 ad=1.4976 pd=5.6 as=2.9952 ps=11.2 w=2.08 l=5.77
X64 a_n7386_8166.t12 a_n11545_9494.t35 VDD.t99 VDD.t98 sky130_fd_pr__pfet_01v8 ad=1.4976 pd=5.6 as=0.6864 ps=2.74 w=2.08 l=5.77
X65 GND.t60 CS_BIAS.t36 VOUT.t38 GND.t44 sky130_fd_pr__nfet_01v8 ad=0.6864 pd=2.74 as=0.6864 ps=2.74 w=2.08 l=5.72
X66 VOUT.t37 CS_BIAS.t37 GND.t59 GND.t32 sky130_fd_pr__nfet_01v8 ad=0.6864 pd=2.74 as=1.4976 ps=5.6 w=2.08 l=5.72
X67 GND.t57 CS_BIAS.t38 VOUT.t36 GND.t44 sky130_fd_pr__nfet_01v8 ad=0.6864 pd=2.74 as=0.6864 ps=2.74 w=2.08 l=5.72
X68 GND.t56 CS_BIAS.t39 VOUT.t35 GND.t44 sky130_fd_pr__nfet_01v8 ad=0.6864 pd=2.74 as=0.6864 ps=2.74 w=2.08 l=5.72
X69 VOUT.t34 CS_BIAS.t40 GND.t55 GND.t32 sky130_fd_pr__nfet_01v8 ad=0.6864 pd=2.74 as=1.4976 ps=5.6 w=2.08 l=5.72
X70 VOUT.t33 CS_BIAS.t41 GND.t54 GND.t32 sky130_fd_pr__nfet_01v8 ad=0.6864 pd=2.74 as=1.4976 ps=5.6 w=2.08 l=5.72
X71 VOUT.t32 CS_BIAS.t42 GND.t53 GND.t11 sky130_fd_pr__nfet_01v8 ad=1.4976 pd=5.6 as=0.6864 ps=2.74 w=2.08 l=5.72
X72 CS_BIAS.t3 CS_BIAS.t2 GND.t52 GND.t25 sky130_fd_pr__nfet_01v8 ad=0.6864 pd=2.74 as=0.6864 ps=2.74 w=2.08 l=5.72
X73 GND.t158 GND.t156 GND.t157 GND.t134 sky130_fd_pr__nfet_01v8 ad=1.4976 pd=5.6 as=0 ps=0 w=2.08 l=5.72
X74 CS_BIAS.t1 CS_BIAS.t0 GND.t51 GND.t21 sky130_fd_pr__nfet_01v8 ad=0.6864 pd=2.74 as=1.4976 ps=5.6 w=2.08 l=5.72
X75 a_n11689_9690.t8 a_n11545_9494.t20 a_n11545_9494.t21 VDD.t78 sky130_fd_pr__pfet_01v8 ad=0.6864 pd=2.74 as=0.6864 ps=2.74 w=2.08 l=5.77
X76 a_n7516_558.t10 VP.t3 a_n11545_9494.t4 GND.t10 sky130_fd_pr__nfet_01v8 ad=2.0952 pd=7.26 as=0.9603 ps=3.57 w=2.91 l=5.42
X77 GND.t155 GND.t153 GND.t154 GND.t126 sky130_fd_pr__nfet_01v8 ad=1.4976 pd=5.6 as=0 ps=0 w=2.08 l=5.72
X78 VDD.t97 a_n11545_9494.t36 a_n7386_8166.t11 VDD.t96 sky130_fd_pr__pfet_01v8 ad=0.6864 pd=2.74 as=0.6864 ps=2.74 w=2.08 l=5.77
X79 VDD.t42 VDD.t40 VDD.t41 VDD.t21 sky130_fd_pr__pfet_01v8 ad=1.4976 pd=5.6 as=0 ps=0 w=2.08 l=5.77
X80 VDD.t39 VDD.t36 VDD.t38 VDD.t37 sky130_fd_pr__pfet_01v8 ad=2.7288 pd=9.02 as=0 ps=0 w=3.79 l=4.11
X81 GND.t152 GND.t150 GND.t151 GND.t89 sky130_fd_pr__nfet_01v8 ad=1.4976 pd=5.6 as=0 ps=0 w=2.08 l=5.72
X82 GND.t149 GND.t146 GND.t148 GND.t147 sky130_fd_pr__nfet_01v8 ad=2.0952 pd=7.26 as=0 ps=0 w=2.91 l=5.42
X83 GND.t145 GND.t143 GND.t144 GND.t126 sky130_fd_pr__nfet_01v8 ad=1.4976 pd=5.6 as=0 ps=0 w=2.08 l=5.72
X84 GND.t50 CS_BIAS.t43 VOUT.t31 GND.t44 sky130_fd_pr__nfet_01v8 ad=0.6864 pd=2.74 as=0.6864 ps=2.74 w=2.08 l=5.72
X85 GND.t142 GND.t140 GND.t141 GND.t126 sky130_fd_pr__nfet_01v8 ad=1.4976 pd=5.6 as=0 ps=0 w=2.08 l=5.72
X86 GND.t139 GND.t137 GND.t138 GND.t126 sky130_fd_pr__nfet_01v8 ad=1.4976 pd=5.6 as=0 ps=0 w=2.08 l=5.72
X87 a_n7386_8166.t15 a_n11545_9494.t37 a_n17362_8608.t15 VDD.t95 sky130_fd_pr__pfet_01v8 ad=0.6864 pd=2.74 as=0.6864 ps=2.74 w=2.08 l=5.77
X88 a_n11689_9690.t15 a_n11545_9494.t38 VDD.t94 VDD.t93 sky130_fd_pr__pfet_01v8 ad=1.4976 pd=5.6 as=0.6864 ps=2.74 w=2.08 l=5.77
X89 GND.t49 CS_BIAS.t44 VOUT.t30 GND.t23 sky130_fd_pr__nfet_01v8 ad=0.6864 pd=2.74 as=0.6864 ps=2.74 w=2.08 l=5.72
X90 a_n7386_8166.t3 a_n11545_9494.t39 a_n17362_8608.t14 VDD.t92 sky130_fd_pr__pfet_01v8 ad=1.4976 pd=5.6 as=0.6864 ps=2.74 w=2.08 l=5.77
X91 VOUT.t29 CS_BIAS.t45 GND.t48 GND.t21 sky130_fd_pr__nfet_01v8 ad=0.6864 pd=2.74 as=1.4976 ps=5.6 w=2.08 l=5.72
X92 VOUT.t28 CS_BIAS.t46 GND.t47 GND.t21 sky130_fd_pr__nfet_01v8 ad=0.6864 pd=2.74 as=1.4976 ps=5.6 w=2.08 l=5.72
X93 VOUT.t27 CS_BIAS.t47 GND.t46 GND.t21 sky130_fd_pr__nfet_01v8 ad=0.6864 pd=2.74 as=1.4976 ps=5.6 w=2.08 l=5.72
X94 GND.t45 CS_BIAS.t48 VOUT.t26 GND.t44 sky130_fd_pr__nfet_01v8 ad=0.6864 pd=2.74 as=0.6864 ps=2.74 w=2.08 l=5.72
X95 VOUT.t25 CS_BIAS.t49 GND.t43 GND.t21 sky130_fd_pr__nfet_01v8 ad=0.6864 pd=2.74 as=1.4976 ps=5.6 w=2.08 l=5.72
X96 VDD.t109 a_n17362_8608.t22 VOUT.t57 VDD.t5 sky130_fd_pr__pfet_01v8 ad=2.7288 pd=9.02 as=1.2507 ps=4.45 w=3.79 l=4.11
X97 VOUT.t24 CS_BIAS.t50 GND.t42 GND.t11 sky130_fd_pr__nfet_01v8 ad=1.4976 pd=5.6 as=0.6864 ps=2.74 w=2.08 l=5.72
X98 a_n7516_558.t7 VN.t7 a_n17362_8608.t5 GND.t6 sky130_fd_pr__nfet_01v8 ad=0.9603 pd=3.57 as=0.9603 ps=3.57 w=2.91 l=5.42
X99 a_n7516_558.t0 VN.t8 a_n17362_8608.t0 GND.t0 sky130_fd_pr__nfet_01v8 ad=0.9603 pd=3.57 as=0.9603 ps=3.57 w=2.91 l=5.42
X100 a_n17362_8608.t1 VN.t9 a_n7516_558.t1 GND.t1 sky130_fd_pr__nfet_01v8 ad=0.9603 pd=3.57 as=0.9603 ps=3.57 w=2.91 l=5.42
X101 a_n11545_9494.t27 VP.t4 a_n7516_558.t25 GND.t85 sky130_fd_pr__nfet_01v8 ad=0.9603 pd=3.57 as=2.0952 ps=7.26 w=2.91 l=5.42
X102 a_n11545_9494.t17 a_n11545_9494.t16 a_n11689_9690.t7 VDD.t91 sky130_fd_pr__pfet_01v8 ad=0.6864 pd=2.74 as=0.6864 ps=2.74 w=2.08 l=5.77
X103 VDD.t35 VDD.t32 VDD.t34 VDD.t33 sky130_fd_pr__pfet_01v8 ad=1.4976 pd=5.6 as=0 ps=0 w=2.08 l=5.77
X104 a_n7386_8166.t4 a_n11545_9494.t40 a_n17362_8608.t13 VDD.t83 sky130_fd_pr__pfet_01v8 ad=1.4976 pd=5.6 as=0.6864 ps=2.74 w=2.08 l=5.77
X105 VDD.t31 VDD.t28 VDD.t30 VDD.t29 sky130_fd_pr__pfet_01v8 ad=2.7288 pd=9.02 as=0 ps=0 w=3.79 l=4.11
X106 a_n11689_9690.t6 a_n11545_9494.t10 a_n11545_9494.t11 VDD.t90 sky130_fd_pr__pfet_01v8 ad=0.6864 pd=2.74 as=1.4976 ps=5.6 w=2.08 l=5.77
X107 VDD.t89 a_n11545_9494.t41 a_n11689_9690.t0 VDD.t88 sky130_fd_pr__pfet_01v8 ad=0.6864 pd=2.74 as=0.6864 ps=2.74 w=2.08 l=5.77
X108 GND.t41 CS_BIAS.t12 CS_BIAS.t13 GND.t19 sky130_fd_pr__nfet_01v8 ad=0.6864 pd=2.74 as=0.6864 ps=2.74 w=2.08 l=5.72
X109 a_n7516_558.t5 VN.t10 a_n17362_8608.t3 GND.t4 sky130_fd_pr__nfet_01v8 ad=0.9603 pd=3.57 as=0.9603 ps=3.57 w=2.91 l=5.42
X110 a_n7516_558.t3 VP.t5 a_n11545_9494.t0 GND.t3 sky130_fd_pr__nfet_01v8 ad=0.9603 pd=3.57 as=0.9603 ps=3.57 w=2.91 l=5.42
X111 a_n17362_8608.t12 a_n11545_9494.t42 a_n7386_8166.t14 VDD.t73 sky130_fd_pr__pfet_01v8 ad=0.6864 pd=2.74 as=0.6864 ps=2.74 w=2.08 l=5.77
X112 a_n7516_558.t9 VP.t6 a_n11545_9494.t3 GND.t6 sky130_fd_pr__nfet_01v8 ad=0.9603 pd=3.57 as=0.9603 ps=3.57 w=2.91 l=5.42
X113 GND.t136 GND.t133 GND.t135 GND.t134 sky130_fd_pr__nfet_01v8 ad=1.4976 pd=5.6 as=0 ps=0 w=2.08 l=5.72
X114 VOUT.t4 a_n17362_8608.t23 VDD.t9 VDD.t8 sky130_fd_pr__pfet_01v8 ad=1.2507 pd=4.45 as=2.7288 ps=9.02 w=3.79 l=4.11
X115 VOUT.t59 a_n7386_8166.t16 sky130_fd_pr__cap_mim_m3_1 l=14.21 w=18.87
X116 VDD.t87 a_n11545_9494.t43 a_n11689_9690.t1 VDD.t86 sky130_fd_pr__pfet_01v8 ad=0.6864 pd=2.74 as=1.4976 ps=5.6 w=2.08 l=5.77
X117 a_n7386_8166.t10 a_n11545_9494.t44 VDD.t85 VDD.t84 sky130_fd_pr__pfet_01v8 ad=1.4976 pd=5.6 as=0.6864 ps=2.74 w=2.08 l=5.77
X118 CS_BIAS.t11 CS_BIAS.t10 GND.t40 GND.t15 sky130_fd_pr__nfet_01v8 ad=1.4976 pd=5.6 as=0.6864 ps=2.74 w=2.08 l=5.72
X119 a_n11545_9494.t13 a_n11545_9494.t12 a_n11689_9690.t5 VDD.t83 sky130_fd_pr__pfet_01v8 ad=1.4976 pd=5.6 as=0.6864 ps=2.74 w=2.08 l=5.77
X120 a_n17362_8608.t2 VN.t11 a_n7516_558.t2 GND.t2 sky130_fd_pr__nfet_01v8 ad=0.9603 pd=3.57 as=0.9603 ps=3.57 w=2.91 l=5.42
X121 GND.t39 CS_BIAS.t51 VOUT.t23 GND.t23 sky130_fd_pr__nfet_01v8 ad=0.6864 pd=2.74 as=0.6864 ps=2.74 w=2.08 l=5.72
X122 DIFFPAIR_BIAS.t1 DIFFPAIR_BIAS.t0 GND.t83 GND.t82 sky130_fd_pr__nfet_01v8 ad=2.5128 pd=8.42 as=2.5128 ps=8.42 w=3.49 l=2.02
X123 VDD.t82 a_n11545_9494.t45 a_n7386_8166.t9 VDD.t81 sky130_fd_pr__pfet_01v8 ad=0.6864 pd=2.74 as=1.4976 ps=5.6 w=2.08 l=5.77
X124 VDD.t80 a_n11545_9494.t46 a_n7386_8166.t8 VDD.t79 sky130_fd_pr__pfet_01v8 ad=0.6864 pd=2.74 as=1.4976 ps=5.6 w=2.08 l=5.77
X125 a_11817_9690# a_11817_9690# a_11817_9690# VDD.t68 sky130_fd_pr__pfet_01v8 ad=1.4976 pd=5.6 as=2.9952 ps=11.2 w=2.08 l=5.77
X126 GND.t38 CS_BIAS.t52 VOUT.t22 GND.t23 sky130_fd_pr__nfet_01v8 ad=0.6864 pd=2.74 as=0.6864 ps=2.74 w=2.08 l=5.72
X127 GND.t37 CS_BIAS.t8 CS_BIAS.t9 GND.t30 sky130_fd_pr__nfet_01v8 ad=0.6864 pd=2.74 as=0.6864 ps=2.74 w=2.08 l=5.72
X128 GND.t132 GND.t129 GND.t131 GND.t130 sky130_fd_pr__nfet_01v8 ad=2.5128 pd=8.42 as=0 ps=0 w=3.49 l=2.02
X129 GND.t36 CS_BIAS.t53 VOUT.t21 GND.t23 sky130_fd_pr__nfet_01v8 ad=0.6864 pd=2.74 as=0.6864 ps=2.74 w=2.08 l=5.72
X130 VOUT.t20 CS_BIAS.t54 GND.t35 GND.t34 sky130_fd_pr__nfet_01v8 ad=0.6864 pd=2.74 as=0.6864 ps=2.74 w=2.08 l=5.72
X131 a_n11545_9494.t8 VP.t7 a_n7516_558.t14 GND.t84 sky130_fd_pr__nfet_01v8 ad=0.9603 pd=3.57 as=2.0952 ps=7.26 w=2.91 l=5.42
X132 VDD.t27 VDD.t24 VDD.t26 VDD.t25 sky130_fd_pr__pfet_01v8 ad=1.4976 pd=5.6 as=0 ps=0 w=2.08 l=5.77
X133 GND.t128 GND.t125 GND.t127 GND.t126 sky130_fd_pr__nfet_01v8 ad=1.4976 pd=5.6 as=0 ps=0 w=2.08 l=5.72
X134 a_n17362_8608.t11 a_n11545_9494.t47 a_n7386_8166.t1 VDD.t78 sky130_fd_pr__pfet_01v8 ad=0.6864 pd=2.74 as=0.6864 ps=2.74 w=2.08 l=5.77
X135 GND.t124 GND.t122 GND.t123 GND.t110 sky130_fd_pr__nfet_01v8 ad=1.4976 pd=5.6 as=0 ps=0 w=2.08 l=5.72
X136 GND.t121 GND.t119 GND.t120 GND.t110 sky130_fd_pr__nfet_01v8 ad=1.4976 pd=5.6 as=0 ps=0 w=2.08 l=5.72
X137 VDD.t23 VDD.t20 VDD.t22 VDD.t21 sky130_fd_pr__pfet_01v8 ad=1.4976 pd=5.6 as=0 ps=0 w=2.08 l=5.77
X138 GND.t118 GND.t116 GND.t117 GND.t110 sky130_fd_pr__nfet_01v8 ad=1.4976 pd=5.6 as=0 ps=0 w=2.08 l=5.72
X139 VDD.t2 a_n17362_8608.t24 VOUT.t0 VDD.t1 sky130_fd_pr__pfet_01v8 ad=2.7288 pd=9.02 as=1.2507 ps=4.45 w=3.79 l=4.11
X140 VOUT.t1 a_n17362_8608.t25 VDD.t4 VDD.t3 sky130_fd_pr__pfet_01v8 ad=1.2507 pd=4.45 as=2.7288 ps=9.02 w=3.79 l=4.11
X141 VDD.t19 VDD.t16 VDD.t18 VDD.t17 sky130_fd_pr__pfet_01v8 ad=1.4976 pd=5.6 as=0 ps=0 w=2.08 l=5.77
X142 VDD.t77 a_n11545_9494.t48 a_n7386_8166.t7 VDD.t76 sky130_fd_pr__pfet_01v8 ad=0.6864 pd=2.74 as=0.6864 ps=2.74 w=2.08 l=5.77
X143 VOUT.t19 CS_BIAS.t55 GND.t33 GND.t32 sky130_fd_pr__nfet_01v8 ad=0.6864 pd=2.74 as=1.4976 ps=5.6 w=2.08 l=5.72
X144 GND.t31 CS_BIAS.t56 VOUT.t18 GND.t30 sky130_fd_pr__nfet_01v8 ad=0.6864 pd=2.74 as=0.6864 ps=2.74 w=2.08 l=5.72
X145 a_n7516_558.t11 VP.t8 a_n11545_9494.t5 GND.t5 sky130_fd_pr__nfet_01v8 ad=2.0952 pd=7.26 as=0.9603 ps=3.57 w=2.91 l=5.42
X146 a_n11689_9690.t2 a_n11545_9494.t49 VDD.t75 VDD.t74 sky130_fd_pr__pfet_01v8 ad=0.6864 pd=2.74 as=0.6864 ps=2.74 w=2.08 l=5.77
X147 GND.t115 GND.t113 GND.t114 GND.t106 sky130_fd_pr__nfet_01v8 ad=2.0952 pd=7.26 as=0 ps=0 w=2.91 l=5.42
X148 GND.t112 GND.t109 GND.t111 GND.t110 sky130_fd_pr__nfet_01v8 ad=1.4976 pd=5.6 as=0 ps=0 w=2.08 l=5.72
X149 a_n11545_9494.t6 VP.t9 a_n7516_558.t12 GND.t81 sky130_fd_pr__nfet_01v8 ad=0.9603 pd=3.57 as=0.9603 ps=3.57 w=2.91 l=5.42
X150 GND.t29 CS_BIAS.t57 VOUT.t17 GND.t19 sky130_fd_pr__nfet_01v8 ad=0.6864 pd=2.74 as=0.6864 ps=2.74 w=2.08 l=5.72
X151 a_n11689_9690.t4 a_n11545_9494.t14 a_n11545_9494.t15 VDD.t73 sky130_fd_pr__pfet_01v8 ad=0.6864 pd=2.74 as=0.6864 ps=2.74 w=2.08 l=5.77
X152 VOUT.t16 CS_BIAS.t58 GND.t26 GND.t25 sky130_fd_pr__nfet_01v8 ad=0.6864 pd=2.74 as=0.6864 ps=2.74 w=2.08 l=5.72
X153 GND.t28 CS_BIAS.t59 VOUT.t15 GND.t19 sky130_fd_pr__nfet_01v8 ad=0.6864 pd=2.74 as=0.6864 ps=2.74 w=2.08 l=5.72
X154 GND.t27 CS_BIAS.t60 VOUT.t14 GND.t19 sky130_fd_pr__nfet_01v8 ad=0.6864 pd=2.74 as=0.6864 ps=2.74 w=2.08 l=5.72
X155 GND.t108 GND.t105 GND.t107 GND.t106 sky130_fd_pr__nfet_01v8 ad=2.0952 pd=7.26 as=0 ps=0 w=2.91 l=5.42
X156 VDD.t7 a_n17362_8608.t26 VOUT.t3 VDD.t1 sky130_fd_pr__pfet_01v8 ad=2.7288 pd=9.02 as=1.2507 ps=4.45 w=3.79 l=4.11
X157 GND.t24 CS_BIAS.t61 VOUT.t13 GND.t23 sky130_fd_pr__nfet_01v8 ad=0.6864 pd=2.74 as=0.6864 ps=2.74 w=2.08 l=5.72
X158 VOUT.t12 CS_BIAS.t62 GND.t22 GND.t21 sky130_fd_pr__nfet_01v8 ad=0.6864 pd=2.74 as=1.4976 ps=5.6 w=2.08 l=5.72
X159 GND.t104 GND.t102 GND.t103 GND.t89 sky130_fd_pr__nfet_01v8 ad=1.4976 pd=5.6 as=0 ps=0 w=2.08 l=5.72
X160 GND.t101 GND.t99 GND.t100 GND.t89 sky130_fd_pr__nfet_01v8 ad=1.4976 pd=5.6 as=0 ps=0 w=2.08 l=5.72
X161 GND.t98 GND.t96 GND.t97 GND.t89 sky130_fd_pr__nfet_01v8 ad=1.4976 pd=5.6 as=0 ps=0 w=2.08 l=5.72
X162 VOUT.t11 CS_BIAS.t63 GND.t18 GND.t15 sky130_fd_pr__nfet_01v8 ad=1.4976 pd=5.6 as=0.6864 ps=2.74 w=2.08 l=5.72
X163 GND.t20 CS_BIAS.t64 VOUT.t10 GND.t19 sky130_fd_pr__nfet_01v8 ad=0.6864 pd=2.74 as=0.6864 ps=2.74 w=2.08 l=5.72
X164 VOUT.t9 CS_BIAS.t65 GND.t17 GND.t15 sky130_fd_pr__nfet_01v8 ad=1.4976 pd=5.6 as=0.6864 ps=2.74 w=2.08 l=5.72
X165 VOUT.t8 CS_BIAS.t66 GND.t16 GND.t15 sky130_fd_pr__nfet_01v8 ad=1.4976 pd=5.6 as=0.6864 ps=2.74 w=2.08 l=5.72
X166 a_n7386_8166.t6 a_n11545_9494.t50 VDD.t72 VDD.t71 sky130_fd_pr__pfet_01v8 ad=0.6864 pd=2.74 as=0.6864 ps=2.74 w=2.08 l=5.77
X167 GND.t95 GND.t92 GND.t94 GND.t93 sky130_fd_pr__nfet_01v8 ad=2.5128 pd=8.42 as=0 ps=0 w=3.49 l=2.02
X168 a_n7516_558.t23 DIFFPAIR_BIAS.t5 GND.t9 GND.t8 sky130_fd_pr__nfet_01v8 ad=2.5128 pd=8.42 as=2.5128 ps=8.42 w=3.49 l=2.02
X169 VDD.t15 VDD.t12 VDD.t14 VDD.t13 sky130_fd_pr__pfet_01v8 ad=2.7288 pd=9.02 as=0 ps=0 w=3.79 l=4.11
X170 a_n11545_9494.t2 VP.t10 a_n7516_558.t8 GND.t7 sky130_fd_pr__nfet_01v8 ad=0.9603 pd=3.57 as=0.9603 ps=3.57 w=2.91 l=5.42
X171 a_n7386_8166.t5 a_n11545_9494.t51 VDD.t70 VDD.t69 sky130_fd_pr__pfet_01v8 ad=0.6864 pd=2.74 as=0.6864 ps=2.74 w=2.08 l=5.77
X172 VDD.t6 a_n17362_8608.t27 VOUT.t2 VDD.t5 sky130_fd_pr__pfet_01v8 ad=2.7288 pd=9.02 as=1.2507 ps=4.45 w=3.79 l=4.11
X173 VOUT.t7 CS_BIAS.t67 GND.t14 GND.t11 sky130_fd_pr__nfet_01v8 ad=1.4976 pd=5.6 as=0.6864 ps=2.74 w=2.08 l=5.72
X174 GND.t91 GND.t88 GND.t90 GND.t89 sky130_fd_pr__nfet_01v8 ad=1.4976 pd=5.6 as=0 ps=0 w=2.08 l=5.72
X175 a_n7516_558.t15 VP.t11 a_n11545_9494.t9 GND.t0 sky130_fd_pr__nfet_01v8 ad=0.9603 pd=3.57 as=0.9603 ps=3.57 w=2.91 l=5.42
X176 VOUT.t6 CS_BIAS.t68 GND.t13 GND.t11 sky130_fd_pr__nfet_01v8 ad=1.4976 pd=5.6 as=0.6864 ps=2.74 w=2.08 l=5.72
X177 VOUT.t5 CS_BIAS.t69 GND.t12 GND.t11 sky130_fd_pr__nfet_01v8 ad=1.4976 pd=5.6 as=0.6864 ps=2.74 w=2.08 l=5.72
R0 CS_BIAS.n511 CS_BIAS.n510 161.3
R1 CS_BIAS.n509 CS_BIAS.n430 161.3
R2 CS_BIAS.n508 CS_BIAS.n507 161.3
R3 CS_BIAS.n506 CS_BIAS.n431 161.3
R4 CS_BIAS.n505 CS_BIAS.n504 161.3
R5 CS_BIAS.n503 CS_BIAS.n432 161.3
R6 CS_BIAS.n502 CS_BIAS.n501 161.3
R7 CS_BIAS.n500 CS_BIAS.n433 161.3
R8 CS_BIAS.n499 CS_BIAS.n498 161.3
R9 CS_BIAS.n497 CS_BIAS.n434 161.3
R10 CS_BIAS.n496 CS_BIAS.n495 161.3
R11 CS_BIAS.n494 CS_BIAS.n435 161.3
R12 CS_BIAS.n493 CS_BIAS.n492 161.3
R13 CS_BIAS.n490 CS_BIAS.n436 161.3
R14 CS_BIAS.n489 CS_BIAS.n488 161.3
R15 CS_BIAS.n487 CS_BIAS.n437 161.3
R16 CS_BIAS.n486 CS_BIAS.n485 161.3
R17 CS_BIAS.n484 CS_BIAS.n438 161.3
R18 CS_BIAS.n483 CS_BIAS.n482 161.3
R19 CS_BIAS.n481 CS_BIAS.n439 161.3
R20 CS_BIAS.n480 CS_BIAS.n479 161.3
R21 CS_BIAS.n478 CS_BIAS.n440 161.3
R22 CS_BIAS.n477 CS_BIAS.n476 161.3
R23 CS_BIAS.n475 CS_BIAS.n441 161.3
R24 CS_BIAS.n474 CS_BIAS.n473 161.3
R25 CS_BIAS.n472 CS_BIAS.n442 161.3
R26 CS_BIAS.n470 CS_BIAS.n469 161.3
R27 CS_BIAS.n468 CS_BIAS.n443 161.3
R28 CS_BIAS.n467 CS_BIAS.n466 161.3
R29 CS_BIAS.n465 CS_BIAS.n444 161.3
R30 CS_BIAS.n464 CS_BIAS.n463 161.3
R31 CS_BIAS.n462 CS_BIAS.n445 161.3
R32 CS_BIAS.n461 CS_BIAS.n460 161.3
R33 CS_BIAS.n459 CS_BIAS.n446 161.3
R34 CS_BIAS.n458 CS_BIAS.n457 161.3
R35 CS_BIAS.n456 CS_BIAS.n447 161.3
R36 CS_BIAS.n455 CS_BIAS.n454 161.3
R37 CS_BIAS.n453 CS_BIAS.n448 161.3
R38 CS_BIAS.n452 CS_BIAS.n451 161.3
R39 CS_BIAS.n367 CS_BIAS.n366 161.3
R40 CS_BIAS.n368 CS_BIAS.n363 161.3
R41 CS_BIAS.n370 CS_BIAS.n369 161.3
R42 CS_BIAS.n371 CS_BIAS.n362 161.3
R43 CS_BIAS.n373 CS_BIAS.n372 161.3
R44 CS_BIAS.n374 CS_BIAS.n361 161.3
R45 CS_BIAS.n376 CS_BIAS.n375 161.3
R46 CS_BIAS.n377 CS_BIAS.n360 161.3
R47 CS_BIAS.n379 CS_BIAS.n378 161.3
R48 CS_BIAS.n380 CS_BIAS.n359 161.3
R49 CS_BIAS.n382 CS_BIAS.n381 161.3
R50 CS_BIAS.n383 CS_BIAS.n358 161.3
R51 CS_BIAS.n385 CS_BIAS.n384 161.3
R52 CS_BIAS.n387 CS_BIAS.n357 161.3
R53 CS_BIAS.n389 CS_BIAS.n388 161.3
R54 CS_BIAS.n390 CS_BIAS.n356 161.3
R55 CS_BIAS.n392 CS_BIAS.n391 161.3
R56 CS_BIAS.n393 CS_BIAS.n355 161.3
R57 CS_BIAS.n395 CS_BIAS.n394 161.3
R58 CS_BIAS.n396 CS_BIAS.n354 161.3
R59 CS_BIAS.n398 CS_BIAS.n397 161.3
R60 CS_BIAS.n399 CS_BIAS.n353 161.3
R61 CS_BIAS.n401 CS_BIAS.n400 161.3
R62 CS_BIAS.n402 CS_BIAS.n352 161.3
R63 CS_BIAS.n404 CS_BIAS.n403 161.3
R64 CS_BIAS.n405 CS_BIAS.n351 161.3
R65 CS_BIAS.n408 CS_BIAS.n407 161.3
R66 CS_BIAS.n409 CS_BIAS.n350 161.3
R67 CS_BIAS.n411 CS_BIAS.n410 161.3
R68 CS_BIAS.n412 CS_BIAS.n349 161.3
R69 CS_BIAS.n414 CS_BIAS.n413 161.3
R70 CS_BIAS.n415 CS_BIAS.n348 161.3
R71 CS_BIAS.n417 CS_BIAS.n416 161.3
R72 CS_BIAS.n418 CS_BIAS.n347 161.3
R73 CS_BIAS.n420 CS_BIAS.n419 161.3
R74 CS_BIAS.n421 CS_BIAS.n346 161.3
R75 CS_BIAS.n423 CS_BIAS.n422 161.3
R76 CS_BIAS.n424 CS_BIAS.n345 161.3
R77 CS_BIAS.n426 CS_BIAS.n425 161.3
R78 CS_BIAS.n282 CS_BIAS.n281 161.3
R79 CS_BIAS.n283 CS_BIAS.n278 161.3
R80 CS_BIAS.n285 CS_BIAS.n284 161.3
R81 CS_BIAS.n286 CS_BIAS.n277 161.3
R82 CS_BIAS.n288 CS_BIAS.n287 161.3
R83 CS_BIAS.n289 CS_BIAS.n276 161.3
R84 CS_BIAS.n291 CS_BIAS.n290 161.3
R85 CS_BIAS.n292 CS_BIAS.n275 161.3
R86 CS_BIAS.n294 CS_BIAS.n293 161.3
R87 CS_BIAS.n295 CS_BIAS.n274 161.3
R88 CS_BIAS.n297 CS_BIAS.n296 161.3
R89 CS_BIAS.n298 CS_BIAS.n273 161.3
R90 CS_BIAS.n300 CS_BIAS.n299 161.3
R91 CS_BIAS.n302 CS_BIAS.n272 161.3
R92 CS_BIAS.n304 CS_BIAS.n303 161.3
R93 CS_BIAS.n305 CS_BIAS.n271 161.3
R94 CS_BIAS.n307 CS_BIAS.n306 161.3
R95 CS_BIAS.n308 CS_BIAS.n270 161.3
R96 CS_BIAS.n310 CS_BIAS.n309 161.3
R97 CS_BIAS.n311 CS_BIAS.n269 161.3
R98 CS_BIAS.n313 CS_BIAS.n312 161.3
R99 CS_BIAS.n314 CS_BIAS.n268 161.3
R100 CS_BIAS.n316 CS_BIAS.n315 161.3
R101 CS_BIAS.n317 CS_BIAS.n267 161.3
R102 CS_BIAS.n319 CS_BIAS.n318 161.3
R103 CS_BIAS.n320 CS_BIAS.n266 161.3
R104 CS_BIAS.n323 CS_BIAS.n322 161.3
R105 CS_BIAS.n324 CS_BIAS.n265 161.3
R106 CS_BIAS.n326 CS_BIAS.n325 161.3
R107 CS_BIAS.n327 CS_BIAS.n264 161.3
R108 CS_BIAS.n329 CS_BIAS.n328 161.3
R109 CS_BIAS.n330 CS_BIAS.n263 161.3
R110 CS_BIAS.n332 CS_BIAS.n331 161.3
R111 CS_BIAS.n333 CS_BIAS.n262 161.3
R112 CS_BIAS.n335 CS_BIAS.n334 161.3
R113 CS_BIAS.n336 CS_BIAS.n261 161.3
R114 CS_BIAS.n338 CS_BIAS.n337 161.3
R115 CS_BIAS.n339 CS_BIAS.n260 161.3
R116 CS_BIAS.n341 CS_BIAS.n340 161.3
R117 CS_BIAS.n197 CS_BIAS.n196 161.3
R118 CS_BIAS.n198 CS_BIAS.n193 161.3
R119 CS_BIAS.n200 CS_BIAS.n199 161.3
R120 CS_BIAS.n201 CS_BIAS.n192 161.3
R121 CS_BIAS.n203 CS_BIAS.n202 161.3
R122 CS_BIAS.n204 CS_BIAS.n191 161.3
R123 CS_BIAS.n206 CS_BIAS.n205 161.3
R124 CS_BIAS.n207 CS_BIAS.n190 161.3
R125 CS_BIAS.n209 CS_BIAS.n208 161.3
R126 CS_BIAS.n210 CS_BIAS.n189 161.3
R127 CS_BIAS.n212 CS_BIAS.n211 161.3
R128 CS_BIAS.n213 CS_BIAS.n188 161.3
R129 CS_BIAS.n215 CS_BIAS.n214 161.3
R130 CS_BIAS.n217 CS_BIAS.n187 161.3
R131 CS_BIAS.n219 CS_BIAS.n218 161.3
R132 CS_BIAS.n220 CS_BIAS.n186 161.3
R133 CS_BIAS.n222 CS_BIAS.n221 161.3
R134 CS_BIAS.n223 CS_BIAS.n185 161.3
R135 CS_BIAS.n225 CS_BIAS.n224 161.3
R136 CS_BIAS.n226 CS_BIAS.n184 161.3
R137 CS_BIAS.n228 CS_BIAS.n227 161.3
R138 CS_BIAS.n229 CS_BIAS.n183 161.3
R139 CS_BIAS.n231 CS_BIAS.n230 161.3
R140 CS_BIAS.n232 CS_BIAS.n182 161.3
R141 CS_BIAS.n234 CS_BIAS.n233 161.3
R142 CS_BIAS.n235 CS_BIAS.n181 161.3
R143 CS_BIAS.n238 CS_BIAS.n237 161.3
R144 CS_BIAS.n239 CS_BIAS.n180 161.3
R145 CS_BIAS.n241 CS_BIAS.n240 161.3
R146 CS_BIAS.n242 CS_BIAS.n179 161.3
R147 CS_BIAS.n244 CS_BIAS.n243 161.3
R148 CS_BIAS.n245 CS_BIAS.n178 161.3
R149 CS_BIAS.n247 CS_BIAS.n246 161.3
R150 CS_BIAS.n248 CS_BIAS.n177 161.3
R151 CS_BIAS.n250 CS_BIAS.n249 161.3
R152 CS_BIAS.n251 CS_BIAS.n176 161.3
R153 CS_BIAS.n253 CS_BIAS.n252 161.3
R154 CS_BIAS.n254 CS_BIAS.n175 161.3
R155 CS_BIAS.n256 CS_BIAS.n255 161.3
R156 CS_BIAS.n38 CS_BIAS.n37 161.3
R157 CS_BIAS.n39 CS_BIAS.n34 161.3
R158 CS_BIAS.n41 CS_BIAS.n40 161.3
R159 CS_BIAS.n42 CS_BIAS.n33 161.3
R160 CS_BIAS.n44 CS_BIAS.n43 161.3
R161 CS_BIAS.n45 CS_BIAS.n32 161.3
R162 CS_BIAS.n47 CS_BIAS.n46 161.3
R163 CS_BIAS.n48 CS_BIAS.n31 161.3
R164 CS_BIAS.n50 CS_BIAS.n49 161.3
R165 CS_BIAS.n51 CS_BIAS.n30 161.3
R166 CS_BIAS.n53 CS_BIAS.n52 161.3
R167 CS_BIAS.n54 CS_BIAS.n29 161.3
R168 CS_BIAS.n56 CS_BIAS.n55 161.3
R169 CS_BIAS.n58 CS_BIAS.n28 161.3
R170 CS_BIAS.n60 CS_BIAS.n59 161.3
R171 CS_BIAS.n61 CS_BIAS.n27 161.3
R172 CS_BIAS.n63 CS_BIAS.n62 161.3
R173 CS_BIAS.n64 CS_BIAS.n26 161.3
R174 CS_BIAS.n66 CS_BIAS.n65 161.3
R175 CS_BIAS.n67 CS_BIAS.n25 161.3
R176 CS_BIAS.n69 CS_BIAS.n68 161.3
R177 CS_BIAS.n70 CS_BIAS.n24 161.3
R178 CS_BIAS.n72 CS_BIAS.n71 161.3
R179 CS_BIAS.n73 CS_BIAS.n23 161.3
R180 CS_BIAS.n75 CS_BIAS.n74 161.3
R181 CS_BIAS.n76 CS_BIAS.n22 161.3
R182 CS_BIAS.n79 CS_BIAS.n78 161.3
R183 CS_BIAS.n80 CS_BIAS.n21 161.3
R184 CS_BIAS.n82 CS_BIAS.n81 161.3
R185 CS_BIAS.n83 CS_BIAS.n20 161.3
R186 CS_BIAS.n85 CS_BIAS.n84 161.3
R187 CS_BIAS.n86 CS_BIAS.n19 161.3
R188 CS_BIAS.n88 CS_BIAS.n87 161.3
R189 CS_BIAS.n89 CS_BIAS.n18 161.3
R190 CS_BIAS.n91 CS_BIAS.n90 161.3
R191 CS_BIAS.n92 CS_BIAS.n17 161.3
R192 CS_BIAS.n94 CS_BIAS.n93 161.3
R193 CS_BIAS.n95 CS_BIAS.n16 161.3
R194 CS_BIAS.n97 CS_BIAS.n96 161.3
R195 CS_BIAS.n113 CS_BIAS.n112 161.3
R196 CS_BIAS.n114 CS_BIAS.n109 161.3
R197 CS_BIAS.n116 CS_BIAS.n115 161.3
R198 CS_BIAS.n117 CS_BIAS.n108 161.3
R199 CS_BIAS.n119 CS_BIAS.n118 161.3
R200 CS_BIAS.n120 CS_BIAS.n107 161.3
R201 CS_BIAS.n122 CS_BIAS.n121 161.3
R202 CS_BIAS.n123 CS_BIAS.n106 161.3
R203 CS_BIAS.n125 CS_BIAS.n124 161.3
R204 CS_BIAS.n126 CS_BIAS.n105 161.3
R205 CS_BIAS.n128 CS_BIAS.n127 161.3
R206 CS_BIAS.n129 CS_BIAS.n14 161.3
R207 CS_BIAS.n131 CS_BIAS.n130 161.3
R208 CS_BIAS.n133 CS_BIAS.n13 161.3
R209 CS_BIAS.n135 CS_BIAS.n134 161.3
R210 CS_BIAS.n136 CS_BIAS.n12 161.3
R211 CS_BIAS.n138 CS_BIAS.n137 161.3
R212 CS_BIAS.n139 CS_BIAS.n11 161.3
R213 CS_BIAS.n141 CS_BIAS.n140 161.3
R214 CS_BIAS.n142 CS_BIAS.n10 161.3
R215 CS_BIAS.n144 CS_BIAS.n143 161.3
R216 CS_BIAS.n145 CS_BIAS.n9 161.3
R217 CS_BIAS.n147 CS_BIAS.n146 161.3
R218 CS_BIAS.n148 CS_BIAS.n8 161.3
R219 CS_BIAS.n150 CS_BIAS.n149 161.3
R220 CS_BIAS.n151 CS_BIAS.n7 161.3
R221 CS_BIAS.n154 CS_BIAS.n153 161.3
R222 CS_BIAS.n155 CS_BIAS.n6 161.3
R223 CS_BIAS.n157 CS_BIAS.n156 161.3
R224 CS_BIAS.n158 CS_BIAS.n5 161.3
R225 CS_BIAS.n160 CS_BIAS.n159 161.3
R226 CS_BIAS.n161 CS_BIAS.n4 161.3
R227 CS_BIAS.n163 CS_BIAS.n162 161.3
R228 CS_BIAS.n164 CS_BIAS.n3 161.3
R229 CS_BIAS.n166 CS_BIAS.n165 161.3
R230 CS_BIAS.n167 CS_BIAS.n2 161.3
R231 CS_BIAS.n169 CS_BIAS.n168 161.3
R232 CS_BIAS.n170 CS_BIAS.n1 161.3
R233 CS_BIAS.n172 CS_BIAS.n171 161.3
R234 CS_BIAS.n1025 CS_BIAS.n1024 161.3
R235 CS_BIAS.n1023 CS_BIAS.n944 161.3
R236 CS_BIAS.n1022 CS_BIAS.n1021 161.3
R237 CS_BIAS.n1020 CS_BIAS.n945 161.3
R238 CS_BIAS.n1019 CS_BIAS.n1018 161.3
R239 CS_BIAS.n1017 CS_BIAS.n946 161.3
R240 CS_BIAS.n1016 CS_BIAS.n1015 161.3
R241 CS_BIAS.n1014 CS_BIAS.n947 161.3
R242 CS_BIAS.n1013 CS_BIAS.n1012 161.3
R243 CS_BIAS.n1011 CS_BIAS.n948 161.3
R244 CS_BIAS.n1010 CS_BIAS.n1009 161.3
R245 CS_BIAS.n1008 CS_BIAS.n949 161.3
R246 CS_BIAS.n1007 CS_BIAS.n1006 161.3
R247 CS_BIAS.n1004 CS_BIAS.n950 161.3