* NGSPICE file created from diff_pair_sample_1476.ext - technology: sky130A

.subckt diff_pair_sample_1476 VTAIL VN VP B VDD2 VDD1
X0 VTAIL.t7 VP.t0 VDD1.t1 w_n2860_n4754# sky130_fd_pr__pfet_01v8 ad=7.3827 pd=38.64 as=3.12345 ps=19.26 w=18.93 l=2.82
X1 B.t11 B.t9 B.t10 w_n2860_n4754# sky130_fd_pr__pfet_01v8 ad=7.3827 pd=38.64 as=0 ps=0 w=18.93 l=2.82
X2 B.t8 B.t6 B.t7 w_n2860_n4754# sky130_fd_pr__pfet_01v8 ad=7.3827 pd=38.64 as=0 ps=0 w=18.93 l=2.82
X3 VTAIL.t6 VP.t1 VDD1.t0 w_n2860_n4754# sky130_fd_pr__pfet_01v8 ad=7.3827 pd=38.64 as=3.12345 ps=19.26 w=18.93 l=2.82
X4 B.t5 B.t3 B.t4 w_n2860_n4754# sky130_fd_pr__pfet_01v8 ad=7.3827 pd=38.64 as=0 ps=0 w=18.93 l=2.82
X5 VDD1.t2 VP.t2 VTAIL.t5 w_n2860_n4754# sky130_fd_pr__pfet_01v8 ad=3.12345 pd=19.26 as=7.3827 ps=38.64 w=18.93 l=2.82
X6 VDD2.t3 VN.t0 VTAIL.t0 w_n2860_n4754# sky130_fd_pr__pfet_01v8 ad=3.12345 pd=19.26 as=7.3827 ps=38.64 w=18.93 l=2.82
X7 VDD2.t2 VN.t1 VTAIL.t2 w_n2860_n4754# sky130_fd_pr__pfet_01v8 ad=3.12345 pd=19.26 as=7.3827 ps=38.64 w=18.93 l=2.82
X8 VDD1.t3 VP.t3 VTAIL.t4 w_n2860_n4754# sky130_fd_pr__pfet_01v8 ad=3.12345 pd=19.26 as=7.3827 ps=38.64 w=18.93 l=2.82
X9 VTAIL.t3 VN.t2 VDD2.t1 w_n2860_n4754# sky130_fd_pr__pfet_01v8 ad=7.3827 pd=38.64 as=3.12345 ps=19.26 w=18.93 l=2.82
X10 VTAIL.t1 VN.t3 VDD2.t0 w_n2860_n4754# sky130_fd_pr__pfet_01v8 ad=7.3827 pd=38.64 as=3.12345 ps=19.26 w=18.93 l=2.82
X11 B.t2 B.t0 B.t1 w_n2860_n4754# sky130_fd_pr__pfet_01v8 ad=7.3827 pd=38.64 as=0 ps=0 w=18.93 l=2.82
R0 VP.n4 VP.t1 196.916
R1 VP.n4 VP.t3 196.024
R2 VP.n5 VP.t0 161.779
R3 VP.n17 VP.t2 161.779
R4 VP.n16 VP.n0 161.3
R5 VP.n15 VP.n14 161.3
R6 VP.n13 VP.n1 161.3
R7 VP.n12 VP.n11 161.3
R8 VP.n10 VP.n2 161.3
R9 VP.n9 VP.n8 161.3
R10 VP.n7 VP.n3 161.3
R11 VP.n6 VP.n5 107.087
R12 VP.n18 VP.n17 107.087
R13 VP.n6 VP.n4 55.7043
R14 VP.n11 VP.n10 40.4934
R15 VP.n11 VP.n1 40.4934
R16 VP.n9 VP.n3 24.4675
R17 VP.n10 VP.n9 24.4675
R18 VP.n15 VP.n1 24.4675
R19 VP.n16 VP.n15 24.4675
R20 VP.n5 VP.n3 3.67055
R21 VP.n17 VP.n16 3.67055
R22 VP.n7 VP.n6 0.278367
R23 VP.n18 VP.n0 0.278367
R24 VP.n8 VP.n7 0.189894
R25 VP.n8 VP.n2 0.189894
R26 VP.n12 VP.n2 0.189894
R27 VP.n13 VP.n12 0.189894
R28 VP.n14 VP.n13 0.189894
R29 VP.n14 VP.n0 0.189894
R30 VP VP.n18 0.153454
R31 VDD1 VDD1.n1 116.508
R32 VDD1 VDD1.n0 67.8611
R33 VDD1.n0 VDD1.t0 1.71762
R34 VDD1.n0 VDD1.t3 1.71762
R35 VDD1.n1 VDD1.t1 1.71762
R36 VDD1.n1 VDD1.t2 1.71762
R37 VTAIL.n842 VTAIL.n742 756.745
R38 VTAIL.n100 VTAIL.n0 756.745
R39 VTAIL.n206 VTAIL.n106 756.745
R40 VTAIL.n312 VTAIL.n212 756.745
R41 VTAIL.n736 VTAIL.n636 756.745
R42 VTAIL.n630 VTAIL.n530 756.745
R43 VTAIL.n524 VTAIL.n424 756.745
R44 VTAIL.n418 VTAIL.n318 756.745
R45 VTAIL.n777 VTAIL.n776 585
R46 VTAIL.n774 VTAIL.n773 585
R47 VTAIL.n783 VTAIL.n782 585
R48 VTAIL.n785 VTAIL.n784 585
R49 VTAIL.n770 VTAIL.n769 585
R50 VTAIL.n791 VTAIL.n790 585
R51 VTAIL.n793 VTAIL.n792 585
R52 VTAIL.n766 VTAIL.n765 585
R53 VTAIL.n799 VTAIL.n798 585
R54 VTAIL.n801 VTAIL.n800 585
R55 VTAIL.n762 VTAIL.n761 585
R56 VTAIL.n807 VTAIL.n806 585
R57 VTAIL.n809 VTAIL.n808 585
R58 VTAIL.n758 VTAIL.n757 585
R59 VTAIL.n815 VTAIL.n814 585
R60 VTAIL.n818 VTAIL.n817 585
R61 VTAIL.n816 VTAIL.n754 585
R62 VTAIL.n823 VTAIL.n753 585
R63 VTAIL.n825 VTAIL.n824 585
R64 VTAIL.n827 VTAIL.n826 585
R65 VTAIL.n750 VTAIL.n749 585
R66 VTAIL.n833 VTAIL.n832 585
R67 VTAIL.n835 VTAIL.n834 585
R68 VTAIL.n746 VTAIL.n745 585
R69 VTAIL.n841 VTAIL.n840 585
R70 VTAIL.n843 VTAIL.n842 585
R71 VTAIL.n35 VTAIL.n34 585
R72 VTAIL.n32 VTAIL.n31 585
R73 VTAIL.n41 VTAIL.n40 585
R74 VTAIL.n43 VTAIL.n42 585
R75 VTAIL.n28 VTAIL.n27 585
R76 VTAIL.n49 VTAIL.n48 585
R77 VTAIL.n51 VTAIL.n50 585
R78 VTAIL.n24 VTAIL.n23 585
R79 VTAIL.n57 VTAIL.n56 585
R80 VTAIL.n59 VTAIL.n58 585
R81 VTAIL.n20 VTAIL.n19 585
R82 VTAIL.n65 VTAIL.n64 585
R83 VTAIL.n67 VTAIL.n66 585
R84 VTAIL.n16 VTAIL.n15 585
R85 VTAIL.n73 VTAIL.n72 585
R86 VTAIL.n76 VTAIL.n75 585
R87 VTAIL.n74 VTAIL.n12 585
R88 VTAIL.n81 VTAIL.n11 585
R89 VTAIL.n83 VTAIL.n82 585
R90 VTAIL.n85 VTAIL.n84 585
R91 VTAIL.n8 VTAIL.n7 585
R92 VTAIL.n91 VTAIL.n90 585
R93 VTAIL.n93 VTAIL.n92 585
R94 VTAIL.n4 VTAIL.n3 585
R95 VTAIL.n99 VTAIL.n98 585
R96 VTAIL.n101 VTAIL.n100 585
R97 VTAIL.n141 VTAIL.n140 585
R98 VTAIL.n138 VTAIL.n137 585
R99 VTAIL.n147 VTAIL.n146 585
R100 VTAIL.n149 VTAIL.n148 585
R101 VTAIL.n134 VTAIL.n133 585
R102 VTAIL.n155 VTAIL.n154 585
R103 VTAIL.n157 VTAIL.n156 585
R104 VTAIL.n130 VTAIL.n129 585
R105 VTAIL.n163 VTAIL.n162 585
R106 VTAIL.n165 VTAIL.n164 585
R107 VTAIL.n126 VTAIL.n125 585
R108 VTAIL.n171 VTAIL.n170 585
R109 VTAIL.n173 VTAIL.n172 585
R110 VTAIL.n122 VTAIL.n121 585
R111 VTAIL.n179 VTAIL.n178 585
R112 VTAIL.n182 VTAIL.n181 585
R113 VTAIL.n180 VTAIL.n118 585
R114 VTAIL.n187 VTAIL.n117 585
R115 VTAIL.n189 VTAIL.n188 585
R116 VTAIL.n191 VTAIL.n190 585
R117 VTAIL.n114 VTAIL.n113 585
R118 VTAIL.n197 VTAIL.n196 585
R119 VTAIL.n199 VTAIL.n198 585
R120 VTAIL.n110 VTAIL.n109 585
R121 VTAIL.n205 VTAIL.n204 585
R122 VTAIL.n207 VTAIL.n206 585
R123 VTAIL.n247 VTAIL.n246 585
R124 VTAIL.n244 VTAIL.n243 585
R125 VTAIL.n253 VTAIL.n252 585
R126 VTAIL.n255 VTAIL.n254 585
R127 VTAIL.n240 VTAIL.n239 585
R128 VTAIL.n261 VTAIL.n260 585
R129 VTAIL.n263 VTAIL.n262 585
R130 VTAIL.n236 VTAIL.n235 585
R131 VTAIL.n269 VTAIL.n268 585
R132 VTAIL.n271 VTAIL.n270 585
R133 VTAIL.n232 VTAIL.n231 585
R134 VTAIL.n277 VTAIL.n276 585
R135 VTAIL.n279 VTAIL.n278 585
R136 VTAIL.n228 VTAIL.n227 585
R137 VTAIL.n285 VTAIL.n284 585
R138 VTAIL.n288 VTAIL.n287 585
R139 VTAIL.n286 VTAIL.n224 585
R140 VTAIL.n293 VTAIL.n223 585
R141 VTAIL.n295 VTAIL.n294 585
R142 VTAIL.n297 VTAIL.n296 585
R143 VTAIL.n220 VTAIL.n219 585
R144 VTAIL.n303 VTAIL.n302 585
R145 VTAIL.n305 VTAIL.n304 585
R146 VTAIL.n216 VTAIL.n215 585
R147 VTAIL.n311 VTAIL.n310 585
R148 VTAIL.n313 VTAIL.n312 585
R149 VTAIL.n737 VTAIL.n736 585
R150 VTAIL.n735 VTAIL.n734 585
R151 VTAIL.n640 VTAIL.n639 585
R152 VTAIL.n729 VTAIL.n728 585
R153 VTAIL.n727 VTAIL.n726 585
R154 VTAIL.n644 VTAIL.n643 585
R155 VTAIL.n721 VTAIL.n720 585
R156 VTAIL.n719 VTAIL.n718 585
R157 VTAIL.n717 VTAIL.n647 585
R158 VTAIL.n651 VTAIL.n648 585
R159 VTAIL.n712 VTAIL.n711 585
R160 VTAIL.n710 VTAIL.n709 585
R161 VTAIL.n653 VTAIL.n652 585
R162 VTAIL.n704 VTAIL.n703 585
R163 VTAIL.n702 VTAIL.n701 585
R164 VTAIL.n657 VTAIL.n656 585
R165 VTAIL.n696 VTAIL.n695 585
R166 VTAIL.n694 VTAIL.n693 585
R167 VTAIL.n661 VTAIL.n660 585
R168 VTAIL.n688 VTAIL.n687 585
R169 VTAIL.n686 VTAIL.n685 585
R170 VTAIL.n665 VTAIL.n664 585
R171 VTAIL.n680 VTAIL.n679 585
R172 VTAIL.n678 VTAIL.n677 585
R173 VTAIL.n669 VTAIL.n668 585
R174 VTAIL.n672 VTAIL.n671 585
R175 VTAIL.n631 VTAIL.n630 585
R176 VTAIL.n629 VTAIL.n628 585
R177 VTAIL.n534 VTAIL.n533 585
R178 VTAIL.n623 VTAIL.n622 585
R179 VTAIL.n621 VTAIL.n620 585
R180 VTAIL.n538 VTAIL.n537 585
R181 VTAIL.n615 VTAIL.n614 585
R182 VTAIL.n613 VTAIL.n612 585
R183 VTAIL.n611 VTAIL.n541 585
R184 VTAIL.n545 VTAIL.n542 585
R185 VTAIL.n606 VTAIL.n605 585
R186 VTAIL.n604 VTAIL.n603 585
R187 VTAIL.n547 VTAIL.n546 585
R188 VTAIL.n598 VTAIL.n597 585
R189 VTAIL.n596 VTAIL.n595 585
R190 VTAIL.n551 VTAIL.n550 585
R191 VTAIL.n590 VTAIL.n589 585
R192 VTAIL.n588 VTAIL.n587 585
R193 VTAIL.n555 VTAIL.n554 585
R194 VTAIL.n582 VTAIL.n581 585
R195 VTAIL.n580 VTAIL.n579 585
R196 VTAIL.n559 VTAIL.n558 585
R197 VTAIL.n574 VTAIL.n573 585
R198 VTAIL.n572 VTAIL.n571 585
R199 VTAIL.n563 VTAIL.n562 585
R200 VTAIL.n566 VTAIL.n565 585
R201 VTAIL.n525 VTAIL.n524 585
R202 VTAIL.n523 VTAIL.n522 585
R203 VTAIL.n428 VTAIL.n427 585
R204 VTAIL.n517 VTAIL.n516 585
R205 VTAIL.n515 VTAIL.n514 585
R206 VTAIL.n432 VTAIL.n431 585
R207 VTAIL.n509 VTAIL.n508 585
R208 VTAIL.n507 VTAIL.n506 585
R209 VTAIL.n505 VTAIL.n435 585
R210 VTAIL.n439 VTAIL.n436 585
R211 VTAIL.n500 VTAIL.n499 585
R212 VTAIL.n498 VTAIL.n497 585
R213 VTAIL.n441 VTAIL.n440 585
R214 VTAIL.n492 VTAIL.n491 585
R215 VTAIL.n490 VTAIL.n489 585
R216 VTAIL.n445 VTAIL.n444 585
R217 VTAIL.n484 VTAIL.n483 585
R218 VTAIL.n482 VTAIL.n481 585
R219 VTAIL.n449 VTAIL.n448 585
R220 VTAIL.n476 VTAIL.n475 585
R221 VTAIL.n474 VTAIL.n473 585
R222 VTAIL.n453 VTAIL.n452 585
R223 VTAIL.n468 VTAIL.n467 585
R224 VTAIL.n466 VTAIL.n465 585
R225 VTAIL.n457 VTAIL.n456 585
R226 VTAIL.n460 VTAIL.n459 585
R227 VTAIL.n419 VTAIL.n418 585
R228 VTAIL.n417 VTAIL.n416 585
R229 VTAIL.n322 VTAIL.n321 585
R230 VTAIL.n411 VTAIL.n410 585
R231 VTAIL.n409 VTAIL.n408 585
R232 VTAIL.n326 VTAIL.n325 585
R233 VTAIL.n403 VTAIL.n402 585
R234 VTAIL.n401 VTAIL.n400 585
R235 VTAIL.n399 VTAIL.n329 585
R236 VTAIL.n333 VTAIL.n330 585
R237 VTAIL.n394 VTAIL.n393 585
R238 VTAIL.n392 VTAIL.n391 585
R239 VTAIL.n335 VTAIL.n334 585
R240 VTAIL.n386 VTAIL.n385 585
R241 VTAIL.n384 VTAIL.n383 585
R242 VTAIL.n339 VTAIL.n338 585
R243 VTAIL.n378 VTAIL.n377 585
R244 VTAIL.n376 VTAIL.n375 585
R245 VTAIL.n343 VTAIL.n342 585
R246 VTAIL.n370 VTAIL.n369 585
R247 VTAIL.n368 VTAIL.n367 585
R248 VTAIL.n347 VTAIL.n346 585
R249 VTAIL.n362 VTAIL.n361 585
R250 VTAIL.n360 VTAIL.n359 585
R251 VTAIL.n351 VTAIL.n350 585
R252 VTAIL.n354 VTAIL.n353 585
R253 VTAIL.t4 VTAIL.n670 327.466
R254 VTAIL.t6 VTAIL.n564 327.466
R255 VTAIL.t0 VTAIL.n458 327.466
R256 VTAIL.t3 VTAIL.n352 327.466
R257 VTAIL.t2 VTAIL.n775 327.466
R258 VTAIL.t1 VTAIL.n33 327.466
R259 VTAIL.t5 VTAIL.n139 327.466
R260 VTAIL.t7 VTAIL.n245 327.466
R261 VTAIL.n776 VTAIL.n773 171.744
R262 VTAIL.n783 VTAIL.n773 171.744
R263 VTAIL.n784 VTAIL.n783 171.744
R264 VTAIL.n784 VTAIL.n769 171.744
R265 VTAIL.n791 VTAIL.n769 171.744
R266 VTAIL.n792 VTAIL.n791 171.744
R267 VTAIL.n792 VTAIL.n765 171.744
R268 VTAIL.n799 VTAIL.n765 171.744
R269 VTAIL.n800 VTAIL.n799 171.744
R270 VTAIL.n800 VTAIL.n761 171.744
R271 VTAIL.n807 VTAIL.n761 171.744
R272 VTAIL.n808 VTAIL.n807 171.744
R273 VTAIL.n808 VTAIL.n757 171.744
R274 VTAIL.n815 VTAIL.n757 171.744
R275 VTAIL.n817 VTAIL.n815 171.744
R276 VTAIL.n817 VTAIL.n816 171.744
R277 VTAIL.n816 VTAIL.n753 171.744
R278 VTAIL.n825 VTAIL.n753 171.744
R279 VTAIL.n826 VTAIL.n825 171.744
R280 VTAIL.n826 VTAIL.n749 171.744
R281 VTAIL.n833 VTAIL.n749 171.744
R282 VTAIL.n834 VTAIL.n833 171.744
R283 VTAIL.n834 VTAIL.n745 171.744
R284 VTAIL.n841 VTAIL.n745 171.744
R285 VTAIL.n842 VTAIL.n841 171.744
R286 VTAIL.n34 VTAIL.n31 171.744
R287 VTAIL.n41 VTAIL.n31 171.744
R288 VTAIL.n42 VTAIL.n41 171.744
R289 VTAIL.n42 VTAIL.n27 171.744
R290 VTAIL.n49 VTAIL.n27 171.744
R291 VTAIL.n50 VTAIL.n49 171.744
R292 VTAIL.n50 VTAIL.n23 171.744
R293 VTAIL.n57 VTAIL.n23 171.744
R294 VTAIL.n58 VTAIL.n57 171.744
R295 VTAIL.n58 VTAIL.n19 171.744
R296 VTAIL.n65 VTAIL.n19 171.744
R297 VTAIL.n66 VTAIL.n65 171.744
R298 VTAIL.n66 VTAIL.n15 171.744
R299 VTAIL.n73 VTAIL.n15 171.744
R300 VTAIL.n75 VTAIL.n73 171.744
R301 VTAIL.n75 VTAIL.n74 171.744
R302 VTAIL.n74 VTAIL.n11 171.744
R303 VTAIL.n83 VTAIL.n11 171.744
R304 VTAIL.n84 VTAIL.n83 171.744
R305 VTAIL.n84 VTAIL.n7 171.744
R306 VTAIL.n91 VTAIL.n7 171.744
R307 VTAIL.n92 VTAIL.n91 171.744
R308 VTAIL.n92 VTAIL.n3 171.744
R309 VTAIL.n99 VTAIL.n3 171.744
R310 VTAIL.n100 VTAIL.n99 171.744
R311 VTAIL.n140 VTAIL.n137 171.744
R312 VTAIL.n147 VTAIL.n137 171.744
R313 VTAIL.n148 VTAIL.n147 171.744
R314 VTAIL.n148 VTAIL.n133 171.744
R315 VTAIL.n155 VTAIL.n133 171.744
R316 VTAIL.n156 VTAIL.n155 171.744
R317 VTAIL.n156 VTAIL.n129 171.744
R318 VTAIL.n163 VTAIL.n129 171.744
R319 VTAIL.n164 VTAIL.n163 171.744
R320 VTAIL.n164 VTAIL.n125 171.744
R321 VTAIL.n171 VTAIL.n125 171.744
R322 VTAIL.n172 VTAIL.n171 171.744
R323 VTAIL.n172 VTAIL.n121 171.744
R324 VTAIL.n179 VTAIL.n121 171.744
R325 VTAIL.n181 VTAIL.n179 171.744
R326 VTAIL.n181 VTAIL.n180 171.744
R327 VTAIL.n180 VTAIL.n117 171.744
R328 VTAIL.n189 VTAIL.n117 171.744
R329 VTAIL.n190 VTAIL.n189 171.744
R330 VTAIL.n190 VTAIL.n113 171.744
R331 VTAIL.n197 VTAIL.n113 171.744
R332 VTAIL.n198 VTAIL.n197 171.744
R333 VTAIL.n198 VTAIL.n109 171.744
R334 VTAIL.n205 VTAIL.n109 171.744
R335 VTAIL.n206 VTAIL.n205 171.744
R336 VTAIL.n246 VTAIL.n243 171.744
R337 VTAIL.n253 VTAIL.n243 171.744
R338 VTAIL.n254 VTAIL.n253 171.744
R339 VTAIL.n254 VTAIL.n239 171.744
R340 VTAIL.n261 VTAIL.n239 171.744
R341 VTAIL.n262 VTAIL.n261 171.744
R342 VTAIL.n262 VTAIL.n235 171.744
R343 VTAIL.n269 VTAIL.n235 171.744
R344 VTAIL.n270 VTAIL.n269 171.744
R345 VTAIL.n270 VTAIL.n231 171.744
R346 VTAIL.n277 VTAIL.n231 171.744
R347 VTAIL.n278 VTAIL.n277 171.744
R348 VTAIL.n278 VTAIL.n227 171.744
R349 VTAIL.n285 VTAIL.n227 171.744
R350 VTAIL.n287 VTAIL.n285 171.744
R351 VTAIL.n287 VTAIL.n286 171.744
R352 VTAIL.n286 VTAIL.n223 171.744
R353 VTAIL.n295 VTAIL.n223 171.744
R354 VTAIL.n296 VTAIL.n295 171.744
R355 VTAIL.n296 VTAIL.n219 171.744
R356 VTAIL.n303 VTAIL.n219 171.744
R357 VTAIL.n304 VTAIL.n303 171.744
R358 VTAIL.n304 VTAIL.n215 171.744
R359 VTAIL.n311 VTAIL.n215 171.744
R360 VTAIL.n312 VTAIL.n311 171.744
R361 VTAIL.n736 VTAIL.n735 171.744
R362 VTAIL.n735 VTAIL.n639 171.744
R363 VTAIL.n728 VTAIL.n639 171.744
R364 VTAIL.n728 VTAIL.n727 171.744
R365 VTAIL.n727 VTAIL.n643 171.744
R366 VTAIL.n720 VTAIL.n643 171.744
R367 VTAIL.n720 VTAIL.n719 171.744
R368 VTAIL.n719 VTAIL.n647 171.744
R369 VTAIL.n651 VTAIL.n647 171.744
R370 VTAIL.n711 VTAIL.n651 171.744
R371 VTAIL.n711 VTAIL.n710 171.744
R372 VTAIL.n710 VTAIL.n652 171.744
R373 VTAIL.n703 VTAIL.n652 171.744
R374 VTAIL.n703 VTAIL.n702 171.744
R375 VTAIL.n702 VTAIL.n656 171.744
R376 VTAIL.n695 VTAIL.n656 171.744
R377 VTAIL.n695 VTAIL.n694 171.744
R378 VTAIL.n694 VTAIL.n660 171.744
R379 VTAIL.n687 VTAIL.n660 171.744
R380 VTAIL.n687 VTAIL.n686 171.744
R381 VTAIL.n686 VTAIL.n664 171.744
R382 VTAIL.n679 VTAIL.n664 171.744
R383 VTAIL.n679 VTAIL.n678 171.744
R384 VTAIL.n678 VTAIL.n668 171.744
R385 VTAIL.n671 VTAIL.n668 171.744
R386 VTAIL.n630 VTAIL.n629 171.744
R387 VTAIL.n629 VTAIL.n533 171.744
R388 VTAIL.n622 VTAIL.n533 171.744
R389 VTAIL.n622 VTAIL.n621 171.744
R390 VTAIL.n621 VTAIL.n537 171.744
R391 VTAIL.n614 VTAIL.n537 171.744
R392 VTAIL.n614 VTAIL.n613 171.744
R393 VTAIL.n613 VTAIL.n541 171.744
R394 VTAIL.n545 VTAIL.n541 171.744
R395 VTAIL.n605 VTAIL.n545 171.744
R396 VTAIL.n605 VTAIL.n604 171.744
R397 VTAIL.n604 VTAIL.n546 171.744
R398 VTAIL.n597 VTAIL.n546 171.744
R399 VTAIL.n597 VTAIL.n596 171.744
R400 VTAIL.n596 VTAIL.n550 171.744
R401 VTAIL.n589 VTAIL.n550 171.744
R402 VTAIL.n589 VTAIL.n588 171.744
R403 VTAIL.n588 VTAIL.n554 171.744
R404 VTAIL.n581 VTAIL.n554 171.744
R405 VTAIL.n581 VTAIL.n580 171.744
R406 VTAIL.n580 VTAIL.n558 171.744
R407 VTAIL.n573 VTAIL.n558 171.744
R408 VTAIL.n573 VTAIL.n572 171.744
R409 VTAIL.n572 VTAIL.n562 171.744
R410 VTAIL.n565 VTAIL.n562 171.744
R411 VTAIL.n524 VTAIL.n523 171.744
R412 VTAIL.n523 VTAIL.n427 171.744
R413 VTAIL.n516 VTAIL.n427 171.744
R414 VTAIL.n516 VTAIL.n515 171.744
R415 VTAIL.n515 VTAIL.n431 171.744
R416 VTAIL.n508 VTAIL.n431 171.744
R417 VTAIL.n508 VTAIL.n507 171.744
R418 VTAIL.n507 VTAIL.n435 171.744
R419 VTAIL.n439 VTAIL.n435 171.744
R420 VTAIL.n499 VTAIL.n439 171.744
R421 VTAIL.n499 VTAIL.n498 171.744
R422 VTAIL.n498 VTAIL.n440 171.744
R423 VTAIL.n491 VTAIL.n440 171.744
R424 VTAIL.n491 VTAIL.n490 171.744
R425 VTAIL.n490 VTAIL.n444 171.744
R426 VTAIL.n483 VTAIL.n444 171.744
R427 VTAIL.n483 VTAIL.n482 171.744
R428 VTAIL.n482 VTAIL.n448 171.744
R429 VTAIL.n475 VTAIL.n448 171.744
R430 VTAIL.n475 VTAIL.n474 171.744
R431 VTAIL.n474 VTAIL.n452 171.744
R432 VTAIL.n467 VTAIL.n452 171.744
R433 VTAIL.n467 VTAIL.n466 171.744
R434 VTAIL.n466 VTAIL.n456 171.744
R435 VTAIL.n459 VTAIL.n456 171.744
R436 VTAIL.n418 VTAIL.n417 171.744
R437 VTAIL.n417 VTAIL.n321 171.744
R438 VTAIL.n410 VTAIL.n321 171.744
R439 VTAIL.n410 VTAIL.n409 171.744
R440 VTAIL.n409 VTAIL.n325 171.744
R441 VTAIL.n402 VTAIL.n325 171.744
R442 VTAIL.n402 VTAIL.n401 171.744
R443 VTAIL.n401 VTAIL.n329 171.744
R444 VTAIL.n333 VTAIL.n329 171.744
R445 VTAIL.n393 VTAIL.n333 171.744
R446 VTAIL.n393 VTAIL.n392 171.744
R447 VTAIL.n392 VTAIL.n334 171.744
R448 VTAIL.n385 VTAIL.n334 171.744
R449 VTAIL.n385 VTAIL.n384 171.744
R450 VTAIL.n384 VTAIL.n338 171.744
R451 VTAIL.n377 VTAIL.n338 171.744
R452 VTAIL.n377 VTAIL.n376 171.744
R453 VTAIL.n376 VTAIL.n342 171.744
R454 VTAIL.n369 VTAIL.n342 171.744
R455 VTAIL.n369 VTAIL.n368 171.744
R456 VTAIL.n368 VTAIL.n346 171.744
R457 VTAIL.n361 VTAIL.n346 171.744
R458 VTAIL.n361 VTAIL.n360 171.744
R459 VTAIL.n360 VTAIL.n350 171.744
R460 VTAIL.n353 VTAIL.n350 171.744
R461 VTAIL.n776 VTAIL.t2 85.8723
R462 VTAIL.n34 VTAIL.t1 85.8723
R463 VTAIL.n140 VTAIL.t5 85.8723
R464 VTAIL.n246 VTAIL.t7 85.8723
R465 VTAIL.n671 VTAIL.t4 85.8723
R466 VTAIL.n565 VTAIL.t6 85.8723
R467 VTAIL.n459 VTAIL.t0 85.8723
R468 VTAIL.n353 VTAIL.t3 85.8723
R469 VTAIL.n847 VTAIL.n846 31.6035
R470 VTAIL.n105 VTAIL.n104 31.6035
R471 VTAIL.n211 VTAIL.n210 31.6035
R472 VTAIL.n317 VTAIL.n316 31.6035
R473 VTAIL.n741 VTAIL.n740 31.6035
R474 VTAIL.n635 VTAIL.n634 31.6035
R475 VTAIL.n529 VTAIL.n528 31.6035
R476 VTAIL.n423 VTAIL.n422 31.6035
R477 VTAIL.n847 VTAIL.n741 31.4014
R478 VTAIL.n423 VTAIL.n317 31.4014
R479 VTAIL.n777 VTAIL.n775 16.3895
R480 VTAIL.n35 VTAIL.n33 16.3895
R481 VTAIL.n141 VTAIL.n139 16.3895
R482 VTAIL.n247 VTAIL.n245 16.3895
R483 VTAIL.n672 VTAIL.n670 16.3895
R484 VTAIL.n566 VTAIL.n564 16.3895
R485 VTAIL.n460 VTAIL.n458 16.3895
R486 VTAIL.n354 VTAIL.n352 16.3895
R487 VTAIL.n824 VTAIL.n823 13.1884
R488 VTAIL.n82 VTAIL.n81 13.1884
R489 VTAIL.n188 VTAIL.n187 13.1884
R490 VTAIL.n294 VTAIL.n293 13.1884
R491 VTAIL.n718 VTAIL.n717 13.1884
R492 VTAIL.n612 VTAIL.n611 13.1884
R493 VTAIL.n506 VTAIL.n505 13.1884
R494 VTAIL.n400 VTAIL.n399 13.1884
R495 VTAIL.n778 VTAIL.n774 12.8005
R496 VTAIL.n822 VTAIL.n754 12.8005
R497 VTAIL.n827 VTAIL.n752 12.8005
R498 VTAIL.n36 VTAIL.n32 12.8005
R499 VTAIL.n80 VTAIL.n12 12.8005
R500 VTAIL.n85 VTAIL.n10 12.8005
R501 VTAIL.n142 VTAIL.n138 12.8005
R502 VTAIL.n186 VTAIL.n118 12.8005
R503 VTAIL.n191 VTAIL.n116 12.8005
R504 VTAIL.n248 VTAIL.n244 12.8005
R505 VTAIL.n292 VTAIL.n224 12.8005
R506 VTAIL.n297 VTAIL.n222 12.8005
R507 VTAIL.n721 VTAIL.n646 12.8005
R508 VTAIL.n716 VTAIL.n648 12.8005
R509 VTAIL.n673 VTAIL.n669 12.8005
R510 VTAIL.n615 VTAIL.n540 12.8005
R511 VTAIL.n610 VTAIL.n542 12.8005
R512 VTAIL.n567 VTAIL.n563 12.8005
R513 VTAIL.n509 VTAIL.n434 12.8005
R514 VTAIL.n504 VTAIL.n436 12.8005
R515 VTAIL.n461 VTAIL.n457 12.8005
R516 VTAIL.n403 VTAIL.n328 12.8005
R517 VTAIL.n398 VTAIL.n330 12.8005
R518 VTAIL.n355 VTAIL.n351 12.8005
R519 VTAIL.n782 VTAIL.n781 12.0247
R520 VTAIL.n819 VTAIL.n818 12.0247
R521 VTAIL.n828 VTAIL.n750 12.0247
R522 VTAIL.n40 VTAIL.n39 12.0247
R523 VTAIL.n77 VTAIL.n76 12.0247
R524 VTAIL.n86 VTAIL.n8 12.0247
R525 VTAIL.n146 VTAIL.n145 12.0247
R526 VTAIL.n183 VTAIL.n182 12.0247
R527 VTAIL.n192 VTAIL.n114 12.0247
R528 VTAIL.n252 VTAIL.n251 12.0247
R529 VTAIL.n289 VTAIL.n288 12.0247
R530 VTAIL.n298 VTAIL.n220 12.0247
R531 VTAIL.n722 VTAIL.n644 12.0247
R532 VTAIL.n713 VTAIL.n712 12.0247
R533 VTAIL.n677 VTAIL.n676 12.0247
R534 VTAIL.n616 VTAIL.n538 12.0247
R535 VTAIL.n607 VTAIL.n606 12.0247
R536 VTAIL.n571 VTAIL.n570 12.0247
R537 VTAIL.n510 VTAIL.n432 12.0247
R538 VTAIL.n501 VTAIL.n500 12.0247
R539 VTAIL.n465 VTAIL.n464 12.0247
R540 VTAIL.n404 VTAIL.n326 12.0247
R541 VTAIL.n395 VTAIL.n394 12.0247
R542 VTAIL.n359 VTAIL.n358 12.0247
R543 VTAIL.n785 VTAIL.n772 11.249
R544 VTAIL.n814 VTAIL.n756 11.249
R545 VTAIL.n832 VTAIL.n831 11.249
R546 VTAIL.n43 VTAIL.n30 11.249
R547 VTAIL.n72 VTAIL.n14 11.249
R548 VTAIL.n90 VTAIL.n89 11.249
R549 VTAIL.n149 VTAIL.n136 11.249
R550 VTAIL.n178 VTAIL.n120 11.249
R551 VTAIL.n196 VTAIL.n195 11.249
R552 VTAIL.n255 VTAIL.n242 11.249
R553 VTAIL.n284 VTAIL.n226 11.249
R554 VTAIL.n302 VTAIL.n301 11.249
R555 VTAIL.n726 VTAIL.n725 11.249
R556 VTAIL.n709 VTAIL.n650 11.249
R557 VTAIL.n680 VTAIL.n667 11.249
R558 VTAIL.n620 VTAIL.n619 11.249
R559 VTAIL.n603 VTAIL.n544 11.249
R560 VTAIL.n574 VTAIL.n561 11.249
R561 VTAIL.n514 VTAIL.n513 11.249
R562 VTAIL.n497 VTAIL.n438 11.249
R563 VTAIL.n468 VTAIL.n455 11.249
R564 VTAIL.n408 VTAIL.n407 11.249
R565 VTAIL.n391 VTAIL.n332 11.249
R566 VTAIL.n362 VTAIL.n349 11.249
R567 VTAIL.n786 VTAIL.n770 10.4732
R568 VTAIL.n813 VTAIL.n758 10.4732
R569 VTAIL.n835 VTAIL.n748 10.4732
R570 VTAIL.n44 VTAIL.n28 10.4732
R571 VTAIL.n71 VTAIL.n16 10.4732
R572 VTAIL.n93 VTAIL.n6 10.4732
R573 VTAIL.n150 VTAIL.n134 10.4732
R574 VTAIL.n177 VTAIL.n122 10.4732
R575 VTAIL.n199 VTAIL.n112 10.4732
R576 VTAIL.n256 VTAIL.n240 10.4732
R577 VTAIL.n283 VTAIL.n228 10.4732
R578 VTAIL.n305 VTAIL.n218 10.4732
R579 VTAIL.n729 VTAIL.n642 10.4732
R580 VTAIL.n708 VTAIL.n653 10.4732
R581 VTAIL.n681 VTAIL.n665 10.4732
R582 VTAIL.n623 VTAIL.n536 10.4732
R583 VTAIL.n602 VTAIL.n547 10.4732
R584 VTAIL.n575 VTAIL.n559 10.4732
R585 VTAIL.n517 VTAIL.n430 10.4732
R586 VTAIL.n496 VTAIL.n441 10.4732
R587 VTAIL.n469 VTAIL.n453 10.4732
R588 VTAIL.n411 VTAIL.n324 10.4732
R589 VTAIL.n390 VTAIL.n335 10.4732
R590 VTAIL.n363 VTAIL.n347 10.4732
R591 VTAIL.n790 VTAIL.n789 9.69747
R592 VTAIL.n810 VTAIL.n809 9.69747
R593 VTAIL.n836 VTAIL.n746 9.69747
R594 VTAIL.n48 VTAIL.n47 9.69747
R595 VTAIL.n68 VTAIL.n67 9.69747
R596 VTAIL.n94 VTAIL.n4 9.69747
R597 VTAIL.n154 VTAIL.n153 9.69747
R598 VTAIL.n174 VTAIL.n173 9.69747
R599 VTAIL.n200 VTAIL.n110 9.69747
R600 VTAIL.n260 VTAIL.n259 9.69747
R601 VTAIL.n280 VTAIL.n279 9.69747
R602 VTAIL.n306 VTAIL.n216 9.69747
R603 VTAIL.n730 VTAIL.n640 9.69747
R604 VTAIL.n705 VTAIL.n704 9.69747
R605 VTAIL.n685 VTAIL.n684 9.69747
R606 VTAIL.n624 VTAIL.n534 9.69747
R607 VTAIL.n599 VTAIL.n598 9.69747
R608 VTAIL.n579 VTAIL.n578 9.69747
R609 VTAIL.n518 VTAIL.n428 9.69747
R610 VTAIL.n493 VTAIL.n492 9.69747
R611 VTAIL.n473 VTAIL.n472 9.69747
R612 VTAIL.n412 VTAIL.n322 9.69747
R613 VTAIL.n387 VTAIL.n386 9.69747
R614 VTAIL.n367 VTAIL.n366 9.69747
R615 VTAIL.n846 VTAIL.n845 9.45567
R616 VTAIL.n104 VTAIL.n103 9.45567
R617 VTAIL.n210 VTAIL.n209 9.45567
R618 VTAIL.n316 VTAIL.n315 9.45567
R619 VTAIL.n740 VTAIL.n739 9.45567
R620 VTAIL.n634 VTAIL.n633 9.45567
R621 VTAIL.n528 VTAIL.n527 9.45567
R622 VTAIL.n422 VTAIL.n421 9.45567
R623 VTAIL.n744 VTAIL.n743 9.3005
R624 VTAIL.n839 VTAIL.n838 9.3005
R625 VTAIL.n837 VTAIL.n836 9.3005
R626 VTAIL.n748 VTAIL.n747 9.3005
R627 VTAIL.n831 VTAIL.n830 9.3005
R628 VTAIL.n829 VTAIL.n828 9.3005
R629 VTAIL.n752 VTAIL.n751 9.3005
R630 VTAIL.n797 VTAIL.n796 9.3005
R631 VTAIL.n795 VTAIL.n794 9.3005
R632 VTAIL.n768 VTAIL.n767 9.3005
R633 VTAIL.n789 VTAIL.n788 9.3005
R634 VTAIL.n787 VTAIL.n786 9.3005
R635 VTAIL.n772 VTAIL.n771 9.3005
R636 VTAIL.n781 VTAIL.n780 9.3005
R637 VTAIL.n779 VTAIL.n778 9.3005
R638 VTAIL.n764 VTAIL.n763 9.3005
R639 VTAIL.n803 VTAIL.n802 9.3005
R640 VTAIL.n805 VTAIL.n804 9.3005
R641 VTAIL.n760 VTAIL.n759 9.3005
R642 VTAIL.n811 VTAIL.n810 9.3005
R643 VTAIL.n813 VTAIL.n812 9.3005
R644 VTAIL.n756 VTAIL.n755 9.3005
R645 VTAIL.n820 VTAIL.n819 9.3005
R646 VTAIL.n822 VTAIL.n821 9.3005
R647 VTAIL.n845 VTAIL.n844 9.3005
R648 VTAIL.n2 VTAIL.n1 9.3005
R649 VTAIL.n97 VTAIL.n96 9.3005
R650 VTAIL.n95 VTAIL.n94 9.3005
R651 VTAIL.n6 VTAIL.n5 9.3005
R652 VTAIL.n89 VTAIL.n88 9.3005
R653 VTAIL.n87 VTAIL.n86 9.3005
R654 VTAIL.n10 VTAIL.n9 9.3005
R655 VTAIL.n55 VTAIL.n54 9.3005
R656 VTAIL.n53 VTAIL.n52 9.3005
R657 VTAIL.n26 VTAIL.n25 9.3005
R658 VTAIL.n47 VTAIL.n46 9.3005
R659 VTAIL.n45 VTAIL.n44 9.3005
R660 VTAIL.n30 VTAIL.n29 9.3005
R661 VTAIL.n39 VTAIL.n38 9.3005
R662 VTAIL.n37 VTAIL.n36 9.3005
R663 VTAIL.n22 VTAIL.n21 9.3005
R664 VTAIL.n61 VTAIL.n60 9.3005
R665 VTAIL.n63 VTAIL.n62 9.3005
R666 VTAIL.n18 VTAIL.n17 9.3005
R667 VTAIL.n69 VTAIL.n68 9.3005
R668 VTAIL.n71 VTAIL.n70 9.3005
R669 VTAIL.n14 VTAIL.n13 9.3005
R670 VTAIL.n78 VTAIL.n77 9.3005
R671 VTAIL.n80 VTAIL.n79 9.3005
R672 VTAIL.n103 VTAIL.n102 9.3005
R673 VTAIL.n108 VTAIL.n107 9.3005
R674 VTAIL.n203 VTAIL.n202 9.3005
R675 VTAIL.n201 VTAIL.n200 9.3005
R676 VTAIL.n112 VTAIL.n111 9.3005
R677 VTAIL.n195 VTAIL.n194 9.3005
R678 VTAIL.n193 VTAIL.n192 9.3005
R679 VTAIL.n116 VTAIL.n115 9.3005
R680 VTAIL.n161 VTAIL.n160 9.3005
R681 VTAIL.n159 VTAIL.n158 9.3005
R682 VTAIL.n132 VTAIL.n131 9.3005
R683 VTAIL.n153 VTAIL.n152 9.3005
R684 VTAIL.n151 VTAIL.n150 9.3005
R685 VTAIL.n136 VTAIL.n135 9.3005
R686 VTAIL.n145 VTAIL.n144 9.3005
R687 VTAIL.n143 VTAIL.n142 9.3005
R688 VTAIL.n128 VTAIL.n127 9.3005
R689 VTAIL.n167 VTAIL.n166 9.3005
R690 VTAIL.n169 VTAIL.n168 9.3005
R691 VTAIL.n124 VTAIL.n123 9.3005
R692 VTAIL.n175 VTAIL.n174 9.3005
R693 VTAIL.n177 VTAIL.n176 9.3005
R694 VTAIL.n120 VTAIL.n119 9.3005
R695 VTAIL.n184 VTAIL.n183 9.3005
R696 VTAIL.n186 VTAIL.n185 9.3005
R697 VTAIL.n209 VTAIL.n208 9.3005
R698 VTAIL.n214 VTAIL.n213 9.3005
R699 VTAIL.n309 VTAIL.n308 9.3005
R700 VTAIL.n307 VTAIL.n306 9.3005
R701 VTAIL.n218 VTAIL.n217 9.3005
R702 VTAIL.n301 VTAIL.n300 9.3005
R703 VTAIL.n299 VTAIL.n298 9.3005
R704 VTAIL.n222 VTAIL.n221 9.3005
R705 VTAIL.n267 VTAIL.n266 9.3005
R706 VTAIL.n265 VTAIL.n264 9.3005
R707 VTAIL.n238 VTAIL.n237 9.3005
R708 VTAIL.n259 VTAIL.n258 9.3005
R709 VTAIL.n257 VTAIL.n256 9.3005
R710 VTAIL.n242 VTAIL.n241 9.3005
R711 VTAIL.n251 VTAIL.n250 9.3005
R712 VTAIL.n249 VTAIL.n248 9.3005
R713 VTAIL.n234 VTAIL.n233 9.3005
R714 VTAIL.n273 VTAIL.n272 9.3005
R715 VTAIL.n275 VTAIL.n274 9.3005
R716 VTAIL.n230 VTAIL.n229 9.3005
R717 VTAIL.n281 VTAIL.n280 9.3005
R718 VTAIL.n283 VTAIL.n282 9.3005
R719 VTAIL.n226 VTAIL.n225 9.3005
R720 VTAIL.n290 VTAIL.n289 9.3005
R721 VTAIL.n292 VTAIL.n291 9.3005
R722 VTAIL.n315 VTAIL.n314 9.3005
R723 VTAIL.n698 VTAIL.n697 9.3005
R724 VTAIL.n700 VTAIL.n699 9.3005
R725 VTAIL.n655 VTAIL.n654 9.3005
R726 VTAIL.n706 VTAIL.n705 9.3005
R727 VTAIL.n708 VTAIL.n707 9.3005
R728 VTAIL.n650 VTAIL.n649 9.3005
R729 VTAIL.n714 VTAIL.n713 9.3005
R730 VTAIL.n716 VTAIL.n715 9.3005
R731 VTAIL.n739 VTAIL.n738 9.3005
R732 VTAIL.n638 VTAIL.n637 9.3005
R733 VTAIL.n733 VTAIL.n732 9.3005
R734 VTAIL.n731 VTAIL.n730 9.3005
R735 VTAIL.n642 VTAIL.n641 9.3005
R736 VTAIL.n725 VTAIL.n724 9.3005
R737 VTAIL.n723 VTAIL.n722 9.3005
R738 VTAIL.n646 VTAIL.n645 9.3005
R739 VTAIL.n659 VTAIL.n658 9.3005
R740 VTAIL.n692 VTAIL.n691 9.3005
R741 VTAIL.n690 VTAIL.n689 9.3005
R742 VTAIL.n663 VTAIL.n662 9.3005
R743 VTAIL.n684 VTAIL.n683 9.3005
R744 VTAIL.n682 VTAIL.n681 9.3005
R745 VTAIL.n667 VTAIL.n666 9.3005
R746 VTAIL.n676 VTAIL.n675 9.3005
R747 VTAIL.n674 VTAIL.n673 9.3005
R748 VTAIL.n592 VTAIL.n591 9.3005
R749 VTAIL.n594 VTAIL.n593 9.3005
R750 VTAIL.n549 VTAIL.n548 9.3005
R751 VTAIL.n600 VTAIL.n599 9.3005
R752 VTAIL.n602 VTAIL.n601 9.3005
R753 VTAIL.n544 VTAIL.n543 9.3005
R754 VTAIL.n608 VTAIL.n607 9.3005
R755 VTAIL.n610 VTAIL.n609 9.3005
R756 VTAIL.n633 VTAIL.n632 9.3005
R757 VTAIL.n532 VTAIL.n531 9.3005
R758 VTAIL.n627 VTAIL.n626 9.3005
R759 VTAIL.n625 VTAIL.n624 9.3005
R760 VTAIL.n536 VTAIL.n535 9.3005
R761 VTAIL.n619 VTAIL.n618 9.3005
R762 VTAIL.n617 VTAIL.n616 9.3005
R763 VTAIL.n540 VTAIL.n539 9.3005
R764 VTAIL.n553 VTAIL.n552 9.3005
R765 VTAIL.n586 VTAIL.n585 9.3005
R766 VTAIL.n584 VTAIL.n583 9.3005
R767 VTAIL.n557 VTAIL.n556 9.3005
R768 VTAIL.n578 VTAIL.n577 9.3005
R769 VTAIL.n576 VTAIL.n575 9.3005
R770 VTAIL.n561 VTAIL.n560 9.3005
R771 VTAIL.n570 VTAIL.n569 9.3005
R772 VTAIL.n568 VTAIL.n567 9.3005
R773 VTAIL.n486 VTAIL.n485 9.3005
R774 VTAIL.n488 VTAIL.n487 9.3005
R775 VTAIL.n443 VTAIL.n442 9.3005
R776 VTAIL.n494 VTAIL.n493 9.3005
R777 VTAIL.n496 VTAIL.n495 9.3005
R778 VTAIL.n438 VTAIL.n437 9.3005
R779 VTAIL.n502 VTAIL.n501 9.3005
R780 VTAIL.n504 VTAIL.n503 9.3005
R781 VTAIL.n527 VTAIL.n526 9.3005
R782 VTAIL.n426 VTAIL.n425 9.3005
R783 VTAIL.n521 VTAIL.n520 9.3005
R784 VTAIL.n519 VTAIL.n518 9.3005
R785 VTAIL.n430 VTAIL.n429 9.3005
R786 VTAIL.n513 VTAIL.n512 9.3005
R787 VTAIL.n511 VTAIL.n510 9.3005
R788 VTAIL.n434 VTAIL.n433 9.3005
R789 VTAIL.n447 VTAIL.n446 9.3005
R790 VTAIL.n480 VTAIL.n479 9.3005
R791 VTAIL.n478 VTAIL.n477 9.3005
R792 VTAIL.n451 VTAIL.n450 9.3005
R793 VTAIL.n472 VTAIL.n471 9.3005
R794 VTAIL.n470 VTAIL.n469 9.3005
R795 VTAIL.n455 VTAIL.n454 9.3005
R796 VTAIL.n464 VTAIL.n463 9.3005
R797 VTAIL.n462 VTAIL.n461 9.3005
R798 VTAIL.n380 VTAIL.n379 9.3005
R799 VTAIL.n382 VTAIL.n381 9.3005
R800 VTAIL.n337 VTAIL.n336 9.3005
R801 VTAIL.n388 VTAIL.n387 9.3005
R802 VTAIL.n390 VTAIL.n389 9.3005
R803 VTAIL.n332 VTAIL.n331 9.3005
R804 VTAIL.n396 VTAIL.n395 9.3005
R805 VTAIL.n398 VTAIL.n397 9.3005
R806 VTAIL.n421 VTAIL.n420 9.3005
R807 VTAIL.n320 VTAIL.n319 9.3005
R808 VTAIL.n415 VTAIL.n414 9.3005
R809 VTAIL.n413 VTAIL.n412 9.3005
R810 VTAIL.n324 VTAIL.n323 9.3005
R811 VTAIL.n407 VTAIL.n406 9.3005
R812 VTAIL.n405 VTAIL.n404 9.3005
R813 VTAIL.n328 VTAIL.n327 9.3005
R814 VTAIL.n341 VTAIL.n340 9.3005
R815 VTAIL.n374 VTAIL.n373 9.3005
R816 VTAIL.n372 VTAIL.n371 9.3005
R817 VTAIL.n345 VTAIL.n344 9.3005
R818 VTAIL.n366 VTAIL.n365 9.3005
R819 VTAIL.n364 VTAIL.n363 9.3005
R820 VTAIL.n349 VTAIL.n348 9.3005
R821 VTAIL.n358 VTAIL.n357 9.3005
R822 VTAIL.n356 VTAIL.n355 9.3005
R823 VTAIL.n793 VTAIL.n768 8.92171
R824 VTAIL.n806 VTAIL.n760 8.92171
R825 VTAIL.n840 VTAIL.n839 8.92171
R826 VTAIL.n51 VTAIL.n26 8.92171
R827 VTAIL.n64 VTAIL.n18 8.92171
R828 VTAIL.n98 VTAIL.n97 8.92171
R829 VTAIL.n157 VTAIL.n132 8.92171
R830 VTAIL.n170 VTAIL.n124 8.92171
R831 VTAIL.n204 VTAIL.n203 8.92171
R832 VTAIL.n263 VTAIL.n238 8.92171
R833 VTAIL.n276 VTAIL.n230 8.92171
R834 VTAIL.n310 VTAIL.n309 8.92171
R835 VTAIL.n734 VTAIL.n733 8.92171
R836 VTAIL.n701 VTAIL.n655 8.92171
R837 VTAIL.n688 VTAIL.n663 8.92171
R838 VTAIL.n628 VTAIL.n627 8.92171
R839 VTAIL.n595 VTAIL.n549 8.92171
R840 VTAIL.n582 VTAIL.n557 8.92171
R841 VTAIL.n522 VTAIL.n521 8.92171
R842 VTAIL.n489 VTAIL.n443 8.92171
R843 VTAIL.n476 VTAIL.n451 8.92171
R844 VTAIL.n416 VTAIL.n415 8.92171
R845 VTAIL.n383 VTAIL.n337 8.92171
R846 VTAIL.n370 VTAIL.n345 8.92171
R847 VTAIL.n794 VTAIL.n766 8.14595
R848 VTAIL.n805 VTAIL.n762 8.14595
R849 VTAIL.n843 VTAIL.n744 8.14595
R850 VTAIL.n52 VTAIL.n24 8.14595
R851 VTAIL.n63 VTAIL.n20 8.14595
R852 VTAIL.n101 VTAIL.n2 8.14595
R853 VTAIL.n158 VTAIL.n130 8.14595
R854 VTAIL.n169 VTAIL.n126 8.14595
R855 VTAIL.n207 VTAIL.n108 8.14595
R856 VTAIL.n264 VTAIL.n236 8.14595
R857 VTAIL.n275 VTAIL.n232 8.14595
R858 VTAIL.n313 VTAIL.n214 8.14595
R859 VTAIL.n737 VTAIL.n638 8.14595
R860 VTAIL.n700 VTAIL.n657 8.14595
R861 VTAIL.n689 VTAIL.n661 8.14595
R862 VTAIL.n631 VTAIL.n532 8.14595
R863 VTAIL.n594 VTAIL.n551 8.14595