* NGSPICE file created from diff_pair_sample_0769.ext - technology: sky130A

.subckt diff_pair_sample_0769 VTAIL VN VP B VDD2 VDD1
X0 B.t11 B.t9 B.t10 w_n5878_n2392# sky130_fd_pr__pfet_01v8 ad=2.7768 pd=15.02 as=0 ps=0 w=7.12 l=3.76
X1 VDD2.t9 VN.t0 VTAIL.t18 w_n5878_n2392# sky130_fd_pr__pfet_01v8 ad=1.1748 pd=7.45 as=1.1748 ps=7.45 w=7.12 l=3.76
X2 VTAIL.t17 VN.t1 VDD2.t8 w_n5878_n2392# sky130_fd_pr__pfet_01v8 ad=1.1748 pd=7.45 as=1.1748 ps=7.45 w=7.12 l=3.76
X3 VDD2.t7 VN.t2 VTAIL.t10 w_n5878_n2392# sky130_fd_pr__pfet_01v8 ad=1.1748 pd=7.45 as=2.7768 ps=15.02 w=7.12 l=3.76
X4 VTAIL.t11 VN.t3 VDD2.t6 w_n5878_n2392# sky130_fd_pr__pfet_01v8 ad=1.1748 pd=7.45 as=1.1748 ps=7.45 w=7.12 l=3.76
X5 VTAIL.t19 VP.t0 VDD1.t9 w_n5878_n2392# sky130_fd_pr__pfet_01v8 ad=1.1748 pd=7.45 as=1.1748 ps=7.45 w=7.12 l=3.76
X6 VTAIL.t2 VP.t1 VDD1.t8 w_n5878_n2392# sky130_fd_pr__pfet_01v8 ad=1.1748 pd=7.45 as=1.1748 ps=7.45 w=7.12 l=3.76
X7 VDD1.t7 VP.t2 VTAIL.t0 w_n5878_n2392# sky130_fd_pr__pfet_01v8 ad=2.7768 pd=15.02 as=1.1748 ps=7.45 w=7.12 l=3.76
X8 VDD2.t5 VN.t4 VTAIL.t9 w_n5878_n2392# sky130_fd_pr__pfet_01v8 ad=2.7768 pd=15.02 as=1.1748 ps=7.45 w=7.12 l=3.76
X9 VDD1.t6 VP.t3 VTAIL.t1 w_n5878_n2392# sky130_fd_pr__pfet_01v8 ad=2.7768 pd=15.02 as=1.1748 ps=7.45 w=7.12 l=3.76
X10 B.t8 B.t6 B.t7 w_n5878_n2392# sky130_fd_pr__pfet_01v8 ad=2.7768 pd=15.02 as=0 ps=0 w=7.12 l=3.76
X11 VDD1.t5 VP.t4 VTAIL.t3 w_n5878_n2392# sky130_fd_pr__pfet_01v8 ad=1.1748 pd=7.45 as=1.1748 ps=7.45 w=7.12 l=3.76
X12 VDD2.t4 VN.t5 VTAIL.t12 w_n5878_n2392# sky130_fd_pr__pfet_01v8 ad=2.7768 pd=15.02 as=1.1748 ps=7.45 w=7.12 l=3.76
X13 VDD2.t3 VN.t6 VTAIL.t16 w_n5878_n2392# sky130_fd_pr__pfet_01v8 ad=1.1748 pd=7.45 as=2.7768 ps=15.02 w=7.12 l=3.76
X14 B.t5 B.t3 B.t4 w_n5878_n2392# sky130_fd_pr__pfet_01v8 ad=2.7768 pd=15.02 as=0 ps=0 w=7.12 l=3.76
X15 VTAIL.t13 VN.t7 VDD2.t2 w_n5878_n2392# sky130_fd_pr__pfet_01v8 ad=1.1748 pd=7.45 as=1.1748 ps=7.45 w=7.12 l=3.76
X16 VDD1.t4 VP.t5 VTAIL.t6 w_n5878_n2392# sky130_fd_pr__pfet_01v8 ad=1.1748 pd=7.45 as=2.7768 ps=15.02 w=7.12 l=3.76
X17 VDD2.t1 VN.t8 VTAIL.t14 w_n5878_n2392# sky130_fd_pr__pfet_01v8 ad=1.1748 pd=7.45 as=1.1748 ps=7.45 w=7.12 l=3.76
X18 VTAIL.t5 VP.t6 VDD1.t3 w_n5878_n2392# sky130_fd_pr__pfet_01v8 ad=1.1748 pd=7.45 as=1.1748 ps=7.45 w=7.12 l=3.76
X19 B.t2 B.t0 B.t1 w_n5878_n2392# sky130_fd_pr__pfet_01v8 ad=2.7768 pd=15.02 as=0 ps=0 w=7.12 l=3.76
X20 VDD1.t2 VP.t7 VTAIL.t4 w_n5878_n2392# sky130_fd_pr__pfet_01v8 ad=1.1748 pd=7.45 as=2.7768 ps=15.02 w=7.12 l=3.76
X21 VDD1.t1 VP.t8 VTAIL.t7 w_n5878_n2392# sky130_fd_pr__pfet_01v8 ad=1.1748 pd=7.45 as=1.1748 ps=7.45 w=7.12 l=3.76
X22 VTAIL.t15 VN.t9 VDD2.t0 w_n5878_n2392# sky130_fd_pr__pfet_01v8 ad=1.1748 pd=7.45 as=1.1748 ps=7.45 w=7.12 l=3.76
X23 VTAIL.t8 VP.t9 VDD1.t0 w_n5878_n2392# sky130_fd_pr__pfet_01v8 ad=1.1748 pd=7.45 as=1.1748 ps=7.45 w=7.12 l=3.76
R0 B.n451 B.n160 585
R1 B.n450 B.n449 585
R2 B.n448 B.n161 585
R3 B.n447 B.n446 585
R4 B.n445 B.n162 585
R5 B.n444 B.n443 585
R6 B.n442 B.n163 585
R7 B.n441 B.n440 585
R8 B.n439 B.n164 585
R9 B.n438 B.n437 585
R10 B.n436 B.n165 585
R11 B.n435 B.n434 585
R12 B.n433 B.n166 585
R13 B.n432 B.n431 585
R14 B.n430 B.n167 585
R15 B.n429 B.n428 585
R16 B.n427 B.n168 585
R17 B.n426 B.n425 585
R18 B.n424 B.n169 585
R19 B.n423 B.n422 585
R20 B.n421 B.n170 585
R21 B.n420 B.n419 585
R22 B.n418 B.n171 585
R23 B.n417 B.n416 585
R24 B.n415 B.n172 585
R25 B.n414 B.n413 585
R26 B.n412 B.n173 585
R27 B.n411 B.n410 585
R28 B.n406 B.n174 585
R29 B.n405 B.n404 585
R30 B.n403 B.n175 585
R31 B.n402 B.n401 585
R32 B.n400 B.n176 585
R33 B.n399 B.n398 585
R34 B.n397 B.n177 585
R35 B.n396 B.n395 585
R36 B.n394 B.n178 585
R37 B.n392 B.n391 585
R38 B.n390 B.n181 585
R39 B.n389 B.n388 585
R40 B.n387 B.n182 585
R41 B.n386 B.n385 585
R42 B.n384 B.n183 585
R43 B.n383 B.n382 585
R44 B.n381 B.n184 585
R45 B.n380 B.n379 585
R46 B.n378 B.n185 585
R47 B.n377 B.n376 585
R48 B.n375 B.n186 585
R49 B.n374 B.n373 585
R50 B.n372 B.n187 585
R51 B.n371 B.n370 585
R52 B.n369 B.n188 585
R53 B.n368 B.n367 585
R54 B.n366 B.n189 585
R55 B.n365 B.n364 585
R56 B.n363 B.n190 585
R57 B.n362 B.n361 585
R58 B.n360 B.n191 585
R59 B.n359 B.n358 585
R60 B.n357 B.n192 585
R61 B.n356 B.n355 585
R62 B.n354 B.n193 585
R63 B.n353 B.n352 585
R64 B.n453 B.n452 585
R65 B.n454 B.n159 585
R66 B.n456 B.n455 585
R67 B.n457 B.n158 585
R68 B.n459 B.n458 585
R69 B.n460 B.n157 585
R70 B.n462 B.n461 585
R71 B.n463 B.n156 585
R72 B.n465 B.n464 585
R73 B.n466 B.n155 585
R74 B.n468 B.n467 585
R75 B.n469 B.n154 585
R76 B.n471 B.n470 585
R77 B.n472 B.n153 585
R78 B.n474 B.n473 585
R79 B.n475 B.n152 585
R80 B.n477 B.n476 585
R81 B.n478 B.n151 585
R82 B.n480 B.n479 585
R83 B.n481 B.n150 585
R84 B.n483 B.n482 585
R85 B.n484 B.n149 585
R86 B.n486 B.n485 585
R87 B.n487 B.n148 585
R88 B.n489 B.n488 585
R89 B.n490 B.n147 585
R90 B.n492 B.n491 585
R91 B.n493 B.n146 585
R92 B.n495 B.n494 585
R93 B.n496 B.n145 585
R94 B.n498 B.n497 585
R95 B.n499 B.n144 585
R96 B.n501 B.n500 585
R97 B.n502 B.n143 585
R98 B.n504 B.n503 585
R99 B.n505 B.n142 585
R100 B.n507 B.n506 585
R101 B.n508 B.n141 585
R102 B.n510 B.n509 585
R103 B.n511 B.n140 585
R104 B.n513 B.n512 585
R105 B.n514 B.n139 585
R106 B.n516 B.n515 585
R107 B.n517 B.n138 585
R108 B.n519 B.n518 585
R109 B.n520 B.n137 585
R110 B.n522 B.n521 585
R111 B.n523 B.n136 585
R112 B.n525 B.n524 585
R113 B.n526 B.n135 585
R114 B.n528 B.n527 585
R115 B.n529 B.n134 585
R116 B.n531 B.n530 585
R117 B.n532 B.n133 585
R118 B.n534 B.n533 585
R119 B.n535 B.n132 585
R120 B.n537 B.n536 585
R121 B.n538 B.n131 585
R122 B.n540 B.n539 585
R123 B.n541 B.n130 585
R124 B.n543 B.n542 585
R125 B.n544 B.n129 585
R126 B.n546 B.n545 585
R127 B.n547 B.n128 585
R128 B.n549 B.n548 585
R129 B.n550 B.n127 585
R130 B.n552 B.n551 585
R131 B.n553 B.n126 585
R132 B.n555 B.n554 585
R133 B.n556 B.n125 585
R134 B.n558 B.n557 585
R135 B.n559 B.n124 585
R136 B.n561 B.n560 585
R137 B.n562 B.n123 585
R138 B.n564 B.n563 585
R139 B.n565 B.n122 585
R140 B.n567 B.n566 585
R141 B.n568 B.n121 585
R142 B.n570 B.n569 585
R143 B.n571 B.n120 585
R144 B.n573 B.n572 585
R145 B.n574 B.n119 585
R146 B.n576 B.n575 585
R147 B.n577 B.n118 585
R148 B.n579 B.n578 585
R149 B.n580 B.n117 585
R150 B.n582 B.n581 585
R151 B.n583 B.n116 585
R152 B.n585 B.n584 585
R153 B.n586 B.n115 585
R154 B.n588 B.n587 585
R155 B.n589 B.n114 585
R156 B.n591 B.n590 585
R157 B.n592 B.n113 585
R158 B.n594 B.n593 585
R159 B.n595 B.n112 585
R160 B.n597 B.n596 585
R161 B.n598 B.n111 585
R162 B.n600 B.n599 585
R163 B.n601 B.n110 585
R164 B.n603 B.n602 585
R165 B.n604 B.n109 585
R166 B.n606 B.n605 585
R167 B.n607 B.n108 585
R168 B.n609 B.n608 585
R169 B.n610 B.n107 585
R170 B.n612 B.n611 585
R171 B.n613 B.n106 585
R172 B.n615 B.n614 585
R173 B.n616 B.n105 585
R174 B.n618 B.n617 585
R175 B.n619 B.n104 585
R176 B.n621 B.n620 585
R177 B.n622 B.n103 585
R178 B.n624 B.n623 585
R179 B.n625 B.n102 585
R180 B.n627 B.n626 585
R181 B.n628 B.n101 585
R182 B.n630 B.n629 585
R183 B.n631 B.n100 585
R184 B.n633 B.n632 585
R185 B.n634 B.n99 585
R186 B.n636 B.n635 585
R187 B.n637 B.n98 585
R188 B.n639 B.n638 585
R189 B.n640 B.n97 585
R190 B.n642 B.n641 585
R191 B.n643 B.n96 585
R192 B.n645 B.n644 585
R193 B.n646 B.n95 585
R194 B.n648 B.n647 585
R195 B.n649 B.n94 585
R196 B.n651 B.n650 585
R197 B.n652 B.n93 585
R198 B.n654 B.n653 585
R199 B.n655 B.n92 585
R200 B.n657 B.n656 585
R201 B.n658 B.n91 585
R202 B.n660 B.n659 585
R203 B.n661 B.n90 585
R204 B.n663 B.n662 585
R205 B.n664 B.n89 585
R206 B.n666 B.n665 585
R207 B.n667 B.n88 585
R208 B.n669 B.n668 585
R209 B.n670 B.n87 585
R210 B.n672 B.n671 585
R211 B.n673 B.n86 585
R212 B.n675 B.n674 585
R213 B.n676 B.n85 585
R214 B.n678 B.n677 585
R215 B.n679 B.n84 585
R216 B.n681 B.n680 585
R217 B.n682 B.n83 585
R218 B.n684 B.n683 585
R219 B.n685 B.n82 585
R220 B.n687 B.n686 585
R221 B.n688 B.n81 585
R222 B.n690 B.n689 585
R223 B.n691 B.n80 585
R224 B.n693 B.n692 585
R225 B.n694 B.n79 585
R226 B.n791 B.n42 585
R227 B.n790 B.n789 585
R228 B.n788 B.n43 585
R229 B.n787 B.n786 585
R230 B.n785 B.n44 585
R231 B.n784 B.n783 585
R232 B.n782 B.n45 585
R233 B.n781 B.n780 585
R234 B.n779 B.n46 585
R235 B.n778 B.n777 585
R236 B.n776 B.n47 585
R237 B.n775 B.n774 585
R238 B.n773 B.n48 585
R239 B.n772 B.n771 585
R240 B.n770 B.n49 585
R241 B.n769 B.n768 585
R242 B.n767 B.n50 585
R243 B.n766 B.n765 585
R244 B.n764 B.n51 585
R245 B.n763 B.n762 585
R246 B.n761 B.n52 585
R247 B.n760 B.n759 585
R248 B.n758 B.n53 585
R249 B.n757 B.n756 585
R250 B.n755 B.n54 585
R251 B.n754 B.n753 585
R252 B.n752 B.n55 585
R253 B.n750 B.n749 585
R254 B.n748 B.n58 585
R255 B.n747 B.n746 585
R256 B.n745 B.n59 585
R257 B.n744 B.n743 585
R258 B.n742 B.n60 585
R259 B.n741 B.n740 585
R260 B.n739 B.n61 585
R261 B.n738 B.n737 585
R262 B.n736 B.n62 585
R263 B.n735 B.n734 585
R264 B.n733 B.n63 585
R265 B.n732 B.n731 585
R266 B.n730 B.n67 585
R267 B.n729 B.n728 585
R268 B.n727 B.n68 585
R269 B.n726 B.n725 585
R270 B.n724 B.n69 585
R271 B.n723 B.n722 585
R272 B.n721 B.n70 585
R273 B.n720 B.n719 585
R274 B.n718 B.n71 585
R275 B.n717 B.n716 585
R276 B.n715 B.n72 585
R277 B.n714 B.n713 585
R278 B.n712 B.n73 585
R279 B.n711 B.n710 585
R280 B.n709 B.n74 585
R281 B.n708 B.n707 585
R282 B.n706 B.n75 585
R283 B.n705 B.n704 585
R284 B.n703 B.n76 585
R285 B.n702 B.n701 585
R286 B.n700 B.n77 585
R287 B.n699 B.n698 585
R288 B.n697 B.n78 585
R289 B.n696 B.n695 585
R290 B.n793 B.n792 585
R291 B.n794 B.n41 585
R292 B.n796 B.n795 585
R293 B.n797 B.n40 585
R294 B.n799 B.n798 585
R295 B.n800 B.n39 585
R296 B.n802 B.n801 585
R297 B.n803 B.n38 585
R298 B.n805 B.n804 585
R299 B.n806 B.n37 585
R300 B.n808 B.n807 585
R301 B.n809 B.n36 585
R302 B.n811 B.n810 585
R303 B.n812 B.n35 585
R304 B.n814 B.n813 585
R305 B.n815 B.n34 585
R306 B.n817 B.n816 585
R307 B.n818 B.n33 585
R308 B.n820 B.n819 585
R309 B.n821 B.n32 585
R310 B.n823 B.n822 585
R311 B.n824 B.n31 585
R312 B.n826 B.n825 585
R313 B.n827 B.n30 585
R314 B.n829 B.n828 585
R315 B.n830 B.n29 585
R316 B.n832 B.n831 585
R317 B.n833 B.n28 585
R318 B.n835 B.n834 585
R319 B.n836 B.n27 585
R320 B.n838 B.n837 585
R321 B.n839 B.n26 585
R322 B.n841 B.n840 585
R323 B.n842 B.n25 585
R324 B.n844 B.n843 585
R325 B.n845 B.n24 585
R326 B.n847 B.n846 585
R327 B.n848 B.n23 585
R328 B.n850 B.n849 585
R329 B.n851 B.n22 585
R330 B.n853 B.n852 585
R331 B.n854 B.n21 585
R332 B.n856 B.n855 585
R333 B.n857 B.n20 585
R334 B.n859 B.n858 585
R335 B.n860 B.n19 585
R336 B.n862 B.n861 585
R337 B.n863 B.n18 585
R338 B.n865 B.n864 585
R339 B.n866 B.n17 585
R340 B.n868 B.n867 585
R341 B.n869 B.n16 585
R342 B.n871 B.n870 585
R343 B.n872 B.n15 585
R344 B.n874 B.n873 585
R345 B.n875 B.n14 585
R346 B.n877 B.n876 585
R347 B.n878 B.n13 585
R348 B.n880 B.n879 585
R349 B.n881 B.n12 585
R350 B.n883 B.n882 585
R351 B.n884 B.n11 585
R352 B.n886 B.n885 585
R353 B.n887 B.n10 585
R354 B.n889 B.n888 585
R355 B.n890 B.n9 585
R356 B.n892 B.n891 585
R357 B.n893 B.n8 585
R358 B.n895 B.n894 585
R359 B.n896 B.n7 585
R360 B.n898 B.n897 585
R361 B.n899 B.n6 585
R362 B.n901 B.n900 585
R363 B.n902 B.n5 585
R364 B.n904 B.n903 585
R365 B.n905 B.n4 585
R366 B.n907 B.n906 585
R367 B.n908 B.n3 585
R368 B.n910 B.n909 585
R369 B.n911 B.n0 585
R370 B.n2 B.n1 585
R371 B.n234 B.n233 585
R372 B.n236 B.n235 585
R373 B.n237 B.n232 585
R374 B.n239 B.n238 585
R375 B.n240 B.n231 585
R376 B.n242 B.n241 585
R377 B.n243 B.n230 585
R378 B.n245 B.n244 585
R379 B.n246 B.n229 585
R380 B.n248 B.n247 585
R381 B.n249 B.n228 585
R382 B.n251 B.n250 585
R383 B.n252 B.n227 585
R384 B.n254 B.n253 585
R385 B.n255 B.n226 585
R386 B.n257 B.n256 585
R387 B.n258 B.n225 585
R388 B.n260 B.n259 585
R389 B.n261 B.n224 585
R390 B.n263 B.n262 585
R391 B.n264 B.n223 585
R392 B.n266 B.n265 585
R393 B.n267 B.n222 585
R394 B.n269 B.n268 585
R395 B.n270 B.n221 585
R396 B.n272 B.n271 585
R397 B.n273 B.n220 585
R398 B.n275 B.n274 585
R399 B.n276 B.n219 585
R400 B.n278 B.n277 585
R401 B.n279 B.n218 585
R402 B.n281 B.n280 585
R403 B.n282 B.n217 585
R404 B.n284 B.n283 585
R405 B.n285 B.n216 585
R406 B.n287 B.n286 585
R407 B.n288 B.n215 585
R408 B.n290 B.n289 585
R409 B.n291 B.n214 585
R410 B.n293 B.n292 585
R411 B.n294 B.n213 585
R412 B.n296 B.n295 585
R413 B.n297 B.n212 585
R414 B.n299 B.n298 585
R415 B.n300 B.n211 585
R416 B.n302 B.n301 585
R417 B.n303 B.n210 585
R418 B.n305 B.n304 585
R419 B.n306 B.n209 585
R420 B.n308 B.n307 585
R421 B.n309 B.n208 585
R422 B.n311 B.n310 585
R423 B.n312 B.n207 585
R424 B.n314 B.n313 585
R425 B.n315 B.n206 585
R426 B.n317 B.n316 585
R427 B.n318 B.n205 585
R428 B.n320 B.n319 585
R429 B.n321 B.n204 585
R430 B.n323 B.n322 585
R431 B.n324 B.n203 585
R432 B.n326 B.n325 585
R433 B.n327 B.n202 585
R434 B.n329 B.n328 585
R435 B.n330 B.n201 585
R436 B.n332 B.n331 585
R437 B.n333 B.n200 585
R438 B.n335 B.n334 585
R439 B.n336 B.n199 585
R440 B.n338 B.n337 585
R441 B.n339 B.n198 585
R442 B.n341 B.n340 585
R443 B.n342 B.n197 585
R444 B.n344 B.n343 585
R445 B.n345 B.n196 585
R446 B.n347 B.n346 585
R447 B.n348 B.n195 585
R448 B.n350 B.n349 585
R449 B.n351 B.n194 585
R450 B.n353 B.n194 473.281
R451 B.n453 B.n160 473.281
R452 B.n695 B.n694 473.281
R453 B.n792 B.n791 473.281
R454 B.n913 B.n912 256.663
R455 B.n179 B.t9 254.948
R456 B.n407 B.t0 254.948
R457 B.n64 B.t3 254.948
R458 B.n56 B.t6 254.948
R459 B.n912 B.n911 235.042
R460 B.n912 B.n2 235.042
R461 B.n407 B.t1 195.066
R462 B.n64 B.t5 195.066
R463 B.n179 B.t10 195.059
R464 B.n56 B.t8 195.059
R465 B.n354 B.n353 163.367
R466 B.n355 B.n354 163.367
R467 B.n355 B.n192 163.367
R468 B.n359 B.n192 163.367
R469 B.n360 B.n359 163.367
R470 B.n361 B.n360 163.367
R471 B.n361 B.n190 163.367
R472 B.n365 B.n190 163.367
R473 B.n366 B.n365 163.367
R474 B.n367 B.n366 163.367
R475 B.n367 B.n188 163.367
R476 B.n371 B.n188 163.367
R477 B.n372 B.n371 163.367
R478 B.n373 B.n372 163.367
R479 B.n373 B.n186 163.367
R480 B.n377 B.n186 163.367
R481 B.n378 B.n377 163.367
R482 B.n379 B.n378 163.367
R483 B.n379 B.n184 163.367
R484 B.n383 B.n184 163.367
R485 B.n384 B.n383 163.367
R486 B.n385 B.n384 163.367
R487 B.n385 B.n182 163.367
R488 B.n389 B.n182 163.367
R489 B.n390 B.n389 163.367
R490 B.n391 B.n390 163.367
R491 B.n391 B.n178 163.367
R492 B.n396 B.n178 163.367
R493 B.n397 B.n396 163.367
R494 B.n398 B.n397 163.367
R495 B.n398 B.n176 163.367
R496 B.n402 B.n176 163.367
R497 B.n403 B.n402 163.367
R498 B.n404 B.n403 163.367
R499 B.n404 B.n174 163.367
R500 B.n411 B.n174 163.367
R501 B.n412 B.n411 163.367
R502 B.n413 B.n412 163.367
R503 B.n413 B.n172 163.367
R504 B.n417 B.n172 163.367
R505 B.n418 B.n417 163.367
R506 B.n419 B.n418 163.367
R507 B.n419 B.n170 163.367
R508 B.n423 B.n170 163.367
R509 B.n424 B.n423 163.367
R510 B.n425 B.n424 163.367
R511 B.n425 B.n168 163.367
R512 B.n429 B.n168 163.367
R513 B.n430 B.n429 163.367
R514 B.n431 B.n430 163.367
R515 B.n431 B.n166 163.367
R516 B.n435 B.n166 163.367
R517 B.n436 B.n435 163.367
R518 B.n437 B.n436 163.367
R519 B.n437 B.n164 163.367
R520 B.n441 B.n164 163.367
R521 B.n442 B.n441 163.367
R522 B.n443 B.n442 163.367
R523 B.n443 B.n162 163.367
R524 B.n447 B.n162 163.367
R525 B.n448 B.n447 163.367
R526 B.n449 B.n448 163.367
R527 B.n449 B.n160 163.367
R528 B.n694 B.n693 163.367
R529 B.n693 B.n80 163.367
R530 B.n689 B.n80 163.367
R531 B.n689 B.n688 163.367
R532 B.n688 B.n687 163.367
R533 B.n687 B.n82 163.367
R534 B.n683 B.n82 163.367
R535 B.n683 B.n682 163.367
R536 B.n682 B.n681 163.367
R537 B.n681 B.n84 163.367
R538 B.n677 B.n84 163.367
R539 B.n677 B.n676 163.367
R540 B.n676 B.n675 163.367
R541 B.n675 B.n86 163.367
R542 B.n671 B.n86 163.367
R543 B.n671 B.n670 163.367
R544 B.n670 B.n669 163.367
R545 B.n669 B.n88 163.367
R546 B.n665 B.n88 163.367
R547 B.n665 B.n664 163.367
R548 B.n664 B.n663 163.367
R549 B.n663 B.n90 163.367
R550 B.n659 B.n90 163.367
R551 B.n659 B.n658 163.367
R552 B.n658 B.n657 163.367
R553 B.n657 B.n92 163.367
R554 B.n653 B.n92 163.367
R555 B.n653 B.n652 163.367
R556 B.n652 B.n651 163.367
R557 B.n651 B.n94 163.367
R558 B.n647 B.n94 163.367
R559 B.n647 B.n646 163.367
R560 B.n646 B.n645 163.367
R561 B.n645 B.n96 163.367
R562 B.n641 B.n96 163.367
R563 B.n641 B.n640 163.367
R564 B.n640 B.n639 163.367
R565 B.n639 B.n98 163.367
R566 B.n635 B.n98 163.367
R567 B.n635 B.n634 163.367
R568 B.n634 B.n633 163.367
R569 B.n633 B.n100 163.367
R570 B.n629 B.n100 163.367
R571 B.n629 B.n628 163.367
R572 B.n628 B.n627 163.367
R573 B.n627 B.n102 163.367
R574 B.n623 B.n102 163.367
R575 B.n623 B.n622 163.367
R576 B.n622 B.n621 163.367
R577 B.n621 B.n104 163.367
R578 B.n617 B.n104 163.367
R579 B.n617 B.n616 163.367
R580 B.n616 B.n615 163.367
R581 B.n615 B.n106 163.367
R582 B.n611 B.n106 163.367
R583 B.n611 B.n610 163.367
R584 B.n610 B.n609 163.367
R585 B.n609 B.n108 163.367
R586 B.n605 B.n108 163.367
R587 B.n605 B.n604 163.367
R588 B.n604 B.n603 163.367
R589 B.n603 B.n110 163.367
R590 B.n599 B.n110 163.367
R591 B.n599 B.n598 163.367
R592 B.n598 B.n597 163.367
R593 B.n597 B.n112 163.367
R594 B.n593 B.n112 163.367
R595 B.n593 B.n592 163.367
R596 B.n592 B.n591 163.367
R597 B.n591 B.n114 163.367
R598 B.n587 B.n114 163.367
R599 B.n587 B.n586 163.367
R600 B.n586 B.n585 163.367
R601 B.n585 B.n116 163.367
R602 B.n581 B.n116 163.367
R603 B.n581 B.n580 163.367
R604 B.n580 B.n579 163.367
R605 B.n579 B.n118 163.367
R606 B.n575 B.n118 163.367
R607 B.n575 B.n574 163.367
R608 B.n574 B.n573 163.367
R609 B.n573 B.n120 163.367
R610 B.n569 B.n120 163.367
R611 B.n569 B.n568 163.367
R612 B.n568 B.n567 163.367
R613 B.n567 B.n122 163.367
R614 B.n563 B.n122 163.367
R615 B.n563 B.n562 163.367
R616 B.n562 B.n561 163.367
R617 B.n561 B.n124 163.367
R618 B.n557 B.n124 163.367
R619 B.n557 B.n556 163.367
R620 B.n556 B.n555 163.367
R621 B.n555 B.n126 163.367
R622 B.n551 B.n126 163.367
R623 B.n551 B.n550 163.367
R624 B.n550 B.n549 163.367
R625 B.n549 B.n128 163.367
R626 B.n545 B.n128 163.367
R627 B.n545 B.n544 163.367
R628 B.n544 B.n543 163.367
R629 B.n543 B.n130 163.367
R630 B.n539 B.n130 163.367
R631 B.n539 B.n538 163.367
R632 B.n538 B.n537 163.367
R633 B.n537 B.n132 163.367
R634 B.n533 B.n132 163.367
R635 B.n533 B.n532 163.367
R636 B.n532 B.n531 163.367
R637 B.n531 B.n134 163.367
R638 B.n527 B.n134 163.367
R639 B.n527 B.n526 163.367
R640 B.n526 B.n525 163.367
R641 B.n525 B.n136 163.367
R642 B.n521 B.n136 163.367
R643 B.n521 B.n520 163.367
R644 B.n520 B.n519 163.367
R645 B.n519 B.n138 163.367
R646 B.n515 B.n138 163.367
R647 B.n515 B.n514 163.367
R648 B.n514 B.n513 163.367
R649 B.n513 B.n140 163.367
R650 B.n509 B.n140 163.367
R651 B.n509 B.n508 163.367
R652 B.n508 B.n507 163.367
R653 B.n507 B.n142 163.367
R654 B.n503 B.n142 163.367
R655 B.n503 B.n502 163.367
R656 B.n502 B.n501 163.367
R657 B.n501 B.n144 163.367
R658 B.n497 B.n144 163.367
R659 B.n497 B.n496 163.367
R660 B.n496 B.n495 163.367
R661 B.n495 B.n146 163.367
R662 B.n491 B.n146 163.367
R663 B.n491 B.n490 163.367
R664 B.n490 B.n489 163.367
R665 B.n489 B.n148 163.367
R666 B.n485 B.n148 163.367
R667 B.n485 B.n484 163.367
R668 B.n484 B.n483 163.367
R669 B.n483 B.n150 163.367
R670 B.n479 B.n150 163.367
R671 B.n479 B.n478 163.367
R672 B.n478 B.n477 163.367
R673 B.n477 B.n152 163.367
R674 B.n473 B.n152 163.367
R675 B.n473 B.n472 163.367
R676 B.n472 B.n471 163.367
R677 B.n471 B.n154 163.367
R678 B.n467 B.n154 163.367
R679 B.n467 B.n466 163.367
R680 B.n466 B.n465 163.367
R681 B.n465 B.n156 163.367
R682 B.n461 B.n156 163.367
R683 B.n461 B.n460 163.367
R684 B.n460 B.n459 163.367
R685 B.n459 B.n158 163.367
R686 B.n455 B.n158 163.367
R687 B.n455 B.n454 163.367
R688 B.n454 B.n453 163.367
R689 B.n791 B.n790 163.367
R690 B.n790 B.n43 163.367
R691 B.n786 B.n43 163.367
R692 B.n786 B.n785 163.367
R693 B.n785 B.n784 163.367
R694 B.n784 B.n45 163.367
R695 B.n780 B.n45 163.367
R696 B.n780 B.n779 163.367
R697 B.n779 B.n778 163.367
R698 B.n778 B.n47 163.367
R699 B.n774 B.n47 163.367
R700 B.n774 B.n773 163.367
R701 B.n773 B.n772 163.367
R702 B.n772 B.n49 163.367
R703 B.n768 B.n49 163.367
R704 B.n768 B.n767 163.367
R705 B.n767 B.n766 163.367
R706 B.n766 B.n51 163.367
R707 B.n762 B.n51 163.367
R708 B.n762 B.n761 163.367
R709 B.n761 B.n760 163.367
R710 B.n760 B.n53 163.367
R711 B.n756 B.n53 163.367
R712 B.n756 B.n755 163.367
R713 B.n755 B.n754 163.367
R714 B.n754 B.n55 163.367
R715 B.n749 B.n55 163.367
R716 B.n749 B.n748 163.367
R717 B.n748 B.n747 163.367
R718 B.n747 B.n59 163.367
R719 B.n743 B.n59 163.367
R720 B.n743 B.n742 163.367
R721 B.n742 B.n741 163.367
R722 B.n741 B.n61 163.367
R723 B.n737 B.n61 163.367
R724 B.n737 B.n736 163.367
R725 B.n736 B.n735 163.367
R726 B.n735 B.n63 163.367
R727 B.n731 B.n63 163.367
R728 B.n731 B.n730 163.367
R729 B.n730 B.n729 163.367
R730 B.n729 B.n68 163.367
R731 B.n725 B.n68 163.367
R732 B.n725 B.n724 163.367
R733 B.n724 B.n723 163.367
R734 B.n723 B.n70 163.367
R735 B.n719 B.n70 163.367
R736 B.n719 B.n718 163.367
R737 B.n718 B.n717 163.367
R738 B.n717 B.n72 163.367
R739 B.n713 B.n72 163.367
R740 B.n713 B.n712 163.367
R741 B.n712 B.n711 163.367
R742 B.n711 B.n74 163.367
R743 B.n707 B.n74 163.367
R744 B.n707 B.n706 163.367
R745 B.n706 B.n705 163.367
R746 B.n705 B.n76 163.367
R747 B.n701 B.n76 163.367
R748 B.n701 B.n700 163.367
R749 B.n700 B.n699 163.367
R750 B.n699 B.n78 163.367
R751 B.n695 B.n78 163.367
R752 B.n792 B.n41 163.367
R753 B.n796 B.n41 163.367
R754 B.n797 B.n796 163.367
R755 B.n798 B.n797 163.367
R756 B.n798 B.n39 163.367
R757 B.n802 B.n39 163.367
R758 B.n803 B.n802 163.367
R759 B.n804 B.n803 163.367
R760 B.n804 B.n37 163.367
R761 B.n808 B.n37 163.367
R762 B.n809 B.n808 163.367
R763 B.n810 B.n809 163.367
R764 B.n810 B.n35 163.367
R765 B.n814 B.n35 163.367
R766 B.n815 B.n814 163.367
R767 B.n816 B.n815 163.367
R768 B.n816 B.n33 163.367
R769 B.n820 B.n33 163.367
R770 B.n821 B.n820 163.367
R771 B.n822 B.n821 163.367
R772 B.n822 B.n31 163.367
R773 B.n826 B.n31 163.367
R774 B.n827 B.n826 163.367
R775 B.n828 B.n827 163.367
R776 B.n828 B.n29 163.367
R777 B.n832 B.n29 163.367
R778 B.n833 B.n832 163.367
R779 B.n834 B.n833 163.367
R780 B.n834 B.n27 163.367
R781 B.n838 B.n27 163.367
R782 B.n839 B.n838 163.367
R783 B.n840 B.n839 163.367
R784 B.n840 B.n25 163.367
R785 B.n844 B.n25 163.367
R786 B.n845 B.n844 163.367
R787 B.n846 B.n845 163.367
R788 B.n846 B.n23 163.367
R789 B.n850 B.n23 163.367
R790 B.n851 B.n850 163.367
R791 B.n852 B.n851 163.367
R792 B.n852 B.n21 163.367
R793 B.n856 B.n21 163.367
R794 B.n857 B.n856 163.367
R795 B.n858 B.n857 163.367
R796 B.n858 B.n19 163.367
R797 B.n862 B.n19 163.367
R798 B.n863 B.n862 163.367
R799 B.n864 B.n863 163.367
R800 B.n864 B.n17 163.367
R801 B.n868 B.n17 163.367
R802 B.n869 B.n868 163.367
R803 B.n870 B.n869 163.367
R804 B.n870 B.n15 163.367
R805 B.n874 B.n15 163.367
R806 B.n875 B.n874 163.367
R807 B.n876 B.n875 163.367
R808 B.n876 B.n13 163.367
R809 B.n880 B.n13 163.367
R810 B.n881 B.n880 163.367
R811 B.n882 B.n881 163.367
R812 B.n882 B.n11 163.367
R813 B.n886 B.n11 163.367
R814 B.n887 B.n886 163.367
R815 B.n888 B.n887 163.367
R816 B.n888 B.n9 163.367
R817 B.n892 B.n9 163.367
R818 B.n893 B.n892 163.367
R819 B.n894 B.n893 163.367
R820 B.n894 B.n7 163.367
R821 B.n898 B.n7 163.367
R822 B.n899 B.n898 163.367
R823 B.n900 B.n899 163.367
R824 B.n900 B.n5 163.367
R825 B.n904 B.n5 163.367
R826 B.n905 B.n904 163.367
R827 B.n906 B.n905 163.367
R828 B.n906 B.n3 163.367
R829 B.n910 B.n3 163.367
R830 B.n911 B.n910 163.367
R831 B.n234 B.n2 163.367
R832 B.n235 B.n234 163.367
R833 B.n235 B.n232 163.367
R834 B.n239 B.n232 163.367
R835 B.n240 B.n239 163.367
R836 B.n241 B.n240 163.367
R837 B.n241 B.n230 163.367
R838 B.n245 B.n230 163.367
R839 B.n246 B.n245 163.367
R840 B.n247 B.n246 163.367
R841 B.n247 B.n228 163.367
R842 B.n251 B.n228 163.367
R843 B.n252 B.n251 163.367
R844 B.n253 B.n252 163.367
R845 B.n253 B.n226 163.367
R846 B.n257 B.n226 163.367
R847 B.n258 B.n257 163.367
R848 B.n259 B.n258 163.367
R849 B.n259 B.n224 163.367
R850 B.n263 B.n224 163.367
R851 B.n264 B.n263 163.367
R852 B.n265 B.n264 163.367
R853 B.n265 B.n222 163.367
R854 B.n269 B.n222 163.367
R855 B.n270 B.n269 163.367
R856 B.n271 B.n270 163.367
R857 B.n271 B.n220 163.367
R858 B.n275 B.n220 163.367
R859 B.n276 B.n275 163.367
R860 B.n277 B.n276 163.367
R861 B.n277 B.n218 163.367
R862 B.n281 B.n218 163.367
R863 B.n282 B.n281 163.367
R864 B.n283 B.n282 163.367
R865 B.n283 B.n216 163.367
R866 B.n287 B.n216 163.367
R867 B.n288 B.n287 163.367
R868 B.n289 B.n288 163.367
R869 B.n289 B.n214 163.367
R870 B.n293 B.n214 163.367
R871 B.n294 B.n293 163.367
R872 B.n295 B.n294 163.367
R873 B.n295 B.n212 163.367
R874 B.n299 B.n212 163.367
R875 B.n300 B.n299 163.367
R876 B.n301 B.n300 163.367
R877 B.n301 B.n210 163.367
R878 B.n305 B.n210 163.367
R879 B.n306 B.n305 163.367
R880 B.n307 B.n306 163.367
R881 B.n307 B.n208 163.367
R882 B.n311 B.n208 163.367
R883 B.n312 B.n311 163.367
R884 B.n313 B.n312 163.367
R885 B.n313 B.n206 163.367
R886 B.n317 B.n206 163.367
R887 B.n318 B.n317 163.367
R888 B.n319 B.n318 163.367
R889 B.n319 B.n204 163.367
R890 B.n323 B.n204 163.367
R891 B.n324 B.n323 163.367
R892 B.n325 B.n324 163.367
R893 B.n325 B.n202 163.367
R894 B.n329 B.n202 163.367
R895 B.n330 B.n329 163.367
R896 B.n331 B.n330 163.367
R897 B.n331 B.n200 163.367
R898 B.n335 B.n200 163.367
R899 B.n336 B.n335 163.367
R900 B.n337 B.n336 163.367
R901 B.n337 B.n198 163.367
R902 B.n341 B.n198 163.367
R903 B.n342 B.n341 163.367
R904 B.n343 B.n342 163.367
R905 B.n343 B.n196 163.367
R906 B.n347 B.n196 163.367
R907 B.n348 B.n347 163.367
R908 B.n349 B.n348 163.367
R909 B.n349 B.n194 163.367
R910 B.n408 B.t2 115.745
R911 B.n65 B.t4 115.745
R912 B.n180 B.t11 115.737
R913 B.n57 B.t7 115.737
R914 B.n180 B.n179 79.3217
R915 B.n408 B.n407 79.3217
R916 B.n65 B.n64 79.3217
R917 B.n57 B.n56 79.3217
R918 B.n393 B.n180 59.5399
R919 B.n409 B.n408 59.5399
R920 B.n66 B.n65 59.5399
R921 B.n751 B.n57 59.5399
R922 B.n793 B.n42 30.7517
R923 B.n696 B.n79 30.7517
R924 B.n452 B.n451 30.7517
R925 B.n352 B.n351 30.7517
R926 B B.n913 18.0485
R927 B.n794 B.n793 10.6151
R928 B.n795 B.n794 10.6151
R929 B.n795 B.n40 10.6151
R930 B.n799 B.n40 10.6151
R931 B.n800 B.n799 10.6151
R932 B.n801 B.n800 10.6151
R933 B.n801 B.n38 10.6151
R934 B.n805 B.n38 10.6151
R935 B.n806 B.n805 10.6151
R936 B.n807 B.n806 10.6151
R937 B.n807 B.n36 10.6151
R938 B.n811 B.n36 10.6151
R939 B.n812 B.n811 10.6151
R940 B.n813 B.n812 10.6151
R941 B.n813 B.n34 10.6151
R942 B.n817 B.n34 10.6151
R943 B.n818 B.n817 10.6151
R944 B.n819 B.n818 10.6151
R945 B.n819 B.n32 10.6151
R946 B.n823 B.n32 10.6151
R947 B.n824 B.n823 10.6151
R948 B.n825 B.n824 10.6151
R949 B.n825 B.n30 10.6151
R950 B.n829 B.n30 10.6151
R951 B.n830 B.n829 10.6151
R952 B.n831 B.n830 10.6151
R953 B.n831 B.n28 10.6151
R954 B.n835 B.n28 10.6151
R955 B.n836 B.n835 10.6151
R956 B.n837 B.n836 10.6151
R957 B.n837 B.n26 10.6151
R958 B.n841 B.n26 10.6151
R959 B.n842 B.n841 10.6151
R960 B.n843 B.n842 10.6151
R961 B.n843 B.n24 10.6151
R962 B.n847 B.n24 10.6151
R963 B.n848 B.n847 10.6151
R964 B.n849 B.n848 10.6151
R965 B.n849 B.n22 10.6151
R966 B.n853 B.n22 10.6151
R967 B.n854 B.n853 10.6151
R968 B.n855 B.n854 10.6151
R969 B.n855 B.n20 10.6151
R970 B.n859 B.n20 10.6151
R971 B.n860 B.n859 10.6151
R972 B.n861 B.n860 10.6151
R973 B.n861 B.n18 10.6151
R974 B.n865 B.n18 10.6151
R975 B.n866 B.n865 10.6151
R976 B.n867 B.n866 10.6151
R977 B.n867 B.n16 10.6151
R978 B.n871 B.n16 10.6151
R979 B.n872 B.n871 10.6151
R980 B.n873 B.n872 10.6151
R981 B.n873 B.n14 10.6151
R982 B.n877 B.n14 10.6151
R983 B.n878 B.n877 10.6151
R984 B.n879 B.n878 10.6151
R985 B.n879 B.n12 10.6151
R986 B.n883 B.n12 10.6151
R987 B.n884 B.n883 10.6151
R988 B.n885 B.n884 10.6151
R989 B.n885 B.n10 10.6151
R990 B.n889 B.n10 10.6151
R991 B.n890 B.n889 10.6151
R992 B.n891 B.n890 10.6151
R993 B.n891 B.n8 10.6151
R994 B.n895 B.n8 10.6151
R995 B.n896 B.n895 10.6151
R996 B.n897 B.n896 10.6151
R997 B.n897 B.n6 10.6151
R998 B.n901 B.n6 10.6151
R999 B.n902 B.n901 10.6151
R1000 B.n903 B.n902 10.6151
R1001 B.n903 B.n4 10.6151
R1002 B.n907 B.n4 10.6151
R1003 B.n908 B.n907 10.6151
R1004 B.n909 B.n908 10.6151
R1005 B.n909 B.n0 10.6151
R1006 B.n789 B.n42 10.6151
R1007 B.n789 B.n788 10.6151
R1008 B.n788 B.n787 10.6151
R1009 B.n787 B.n44 10.6151
R1010 B.n783 B.n44 10.6151
R1011 B.n783 B.n782 10.6151
R1012 B.n782 B.n781 10.6151
R1013 B.n781 B.n46 10.6151
R1014 B.n777 B.n46 10.6151
R1015 B.n777 B.n776 10.6151
R1016 B.n776 B.n775 10.6151
R1017 B.n775 B.n48 10.6151
R1018 B.n771 B.n48 10.6151
R1019 B.n771 B.n770 10.6151
R1020 B.n770 B.n769 10.6151
R1021 B.n769 B.n50 10.6151
R1022 B.n765 B.n50 10.6151
R1023 B.n765 B.n764 10.6151
R1024 B.n764 B.n763 10.6151
R1025 B.n763 B.n52 10.6151
R1026 B.n759 B.n52 10.6151
R1027 B.n759 B.n758 10.6151
R1028 B.n758 B.n757 10.6151
R1029 B.n757 B.n54 10.6151
R1030 B.n753 B.n54 10.6151
R1031 B.n753 B.n752 10.6151
R1032 B.n750 B.n58 10.6151
R1033 B.n746 B.n58 10.6151
R1034 B.n746 B.n745 10.6151
R1035 B.n745 B.n744 10.6151
R1036 B.n744 B.n60 10.6151
R1037 B.n740 B.n60 10.6151
R1038 B.n740 B.n739 10.6151
R1039 B.n739 B.n738 10.6151
R1040 B.n738 B.n62 10.6151
R1041 B.n734 B.n733 10.6151
R1042 B.n733 B.n732 10.6151
R1043 B.n732 B.n67 10.6151
R1044 B.n728 B.n67 10.6151
R1045 B.n728 B.n727 10.6151
R1046 B.n727 B.n726 10.6151
R1047 B.n726 B.n69 10.6151
R1048 B.n722 B.n69 10.6151
R1049 B.n722 B.n721 10.6151
R1050 B.n721 B.n720 10.6151
R1051 B.n720 B.n71 10.6151
R1052 B.n716 B.n71 10.6151
R1053 B.n716 B.n715 10.6151
R1054 B.n715 B.n714 10.6151
R1055 B.n714 B.n73 10.6151
R1056 B.n710 B.n73 10.6151
R1057 B.n710 B.n709 10.6151
R1058 B.n709 B.n708 10.6151
R1059 B.n708 B.n75 10.6151
R1060 B.n704 B.n75 10.6151
R1061 B.n704 B.n703 10.6151
R1062 B.n703 B.n702 10.6151
R1063 B.n702 B.n77 10.6151
R1064 B.n698 B.n77 10.6151
R1065 B.n698 B.n697 10.6151
R1066 B.n697 B.n696 10.6151
R1067 B.n692 B.n79 10.6151
R1068 B.n692 B.n691 10.6151
R1069 B.n691 B.n690 10.6151
R1070 B.n690 B.n81 10.6151
R1071 B.n686 B.n81 10.6151
R1072 B.n686 B.n685 10.6151
R1073 B.n685 B.n684 10.6151
R1074 B.n684 B.n83 10.6151
R1075 B.n680 B.n83 10.6151
R1076 B.n680 B.n679 10.6151
R1077 B.n679 B.n678 10.6151
R1078 B.n678 B.n85 10.6151
R1079 B.n674 B.n85 10.6151
R1080 B.n674 B.n673 10.6151
R1081 B.n673 B.n672 10.6151
R1082 B.n672 B.n87 10.6151
R1083 B.n668 B.n87 10.6151
R1084 B.n668 B.n667 10.6151