* NGSPICE file created from tg_sample_0004.ext - technology: sky130A

.subckt tg_sample_0004 VIN VGN VGP VSS VCC VOUT
X0 VIN.t7 VGP.t0 VOUT.t4 VCC.t3 sky130_fd_pr__pfet_01v8 ad=1.16325 pd=7.38 as=1.16325 ps=7.38 w=7.05 l=2.54
X1 VIN.t2 VGN.t0 VOUT.t2 VSS.t3 sky130_fd_pr__nfet_01v8 ad=2.3727 pd=14.71 as=2.3727 ps=14.71 w=14.38 l=2.98
X2 VOUT.t1 VGN.t1 VIN.t1 VSS.t2 sky130_fd_pr__nfet_01v8 ad=2.3727 pd=14.71 as=5.6082 ps=29.54 w=14.38 l=2.98
X3 VIN.t6 VGP.t1 VOUT.t5 VCC.t2 sky130_fd_pr__pfet_01v8 ad=2.7495 pd=14.88 as=1.16325 ps=7.38 w=7.05 l=2.54
X4 VOUT.t0 VGN.t2 VIN.t0 VSS.t1 sky130_fd_pr__nfet_01v8 ad=2.3727 pd=14.71 as=2.3727 ps=14.71 w=14.38 l=2.98
X5 VIN.t3 VGN.t3 VOUT.t3 VSS.t0 sky130_fd_pr__nfet_01v8 ad=5.6082 pd=29.54 as=2.3727 ps=14.71 w=14.38 l=2.98
X6 VCC.t11 VCC.t8 VCC.t10 VCC.t9 sky130_fd_pr__pfet_01v8 ad=2.7495 pd=14.88 as=0 ps=0 w=7.05 l=2.54
X7 VCC.t7 VCC.t4 VCC.t6 VCC.t5 sky130_fd_pr__pfet_01v8 ad=2.7495 pd=14.88 as=0 ps=0 w=7.05 l=2.54
X8 VOUT.t6 VGP.t2 VIN.t5 VCC.t1 sky130_fd_pr__pfet_01v8 ad=1.16325 pd=7.38 as=2.7495 ps=14.88 w=7.05 l=2.54
X9 VOUT.t7 VGP.t3 VIN.t4 VCC.t0 sky130_fd_pr__pfet_01v8 ad=1.16325 pd=7.38 as=1.16325 ps=7.38 w=7.05 l=2.54
X10 VSS.t11 VSS.t8 VSS.t10 VSS.t9 sky130_fd_pr__nfet_01v8 ad=5.6082 pd=29.54 as=0 ps=0 w=14.38 l=2.98
X11 VSS.t7 VSS.t4 VSS.t6 VSS.t5 sky130_fd_pr__nfet_01v8 ad=5.6082 pd=29.54 as=0 ps=0 w=14.38 l=2.98
R0 VGP.n26 VGP.n0 161.3
R1 VGP.n25 VGP.n24 161.3
R2 VGP.n23 VGP.n1 161.3
R3 VGP.n22 VGP.n21 161.3
R4 VGP.n20 VGP.n2 161.3
R5 VGP.n19 VGP.n18 161.3
R6 VGP.n17 VGP.n16 161.3
R7 VGP.n15 VGP.n4 161.3
R8 VGP.n14 VGP.n13 161.3
R9 VGP.n12 VGP.n5 161.3
R10 VGP.n11 VGP.n10 161.3
R11 VGP.n9 VGP.n6 161.3
R12 VGP.n28 VGP.n27 108.066
R13 VGP.n7 VGP.t2 98.0515
R14 VGP.n8 VGP.t0 66.8922
R15 VGP.n3 VGP.t3 66.8922
R16 VGP.n27 VGP.t1 66.8922
R17 VGP.n8 VGP.n7 63.437
R18 VGP.n14 VGP.n5 56.5193
R19 VGP.n21 VGP.n1 52.1486
R20 VGP.n21 VGP.n20 28.8382
R21 VGP.n10 VGP.n5 24.4675
R22 VGP.n10 VGP.n9 24.4675
R23 VGP.n20 VGP.n19 24.4675
R24 VGP.n16 VGP.n15 24.4675
R25 VGP.n15 VGP.n14 24.4675
R26 VGP.n26 VGP.n25 24.4675
R27 VGP.n25 VGP.n1 24.4675
R28 VGP.n19 VGP.n3 15.4147
R29 VGP.n9 VGP.n8 9.05329
R30 VGP.n16 VGP.n3 9.05329
R31 VGP.n7 VGP.n6 7.31035
R32 VGP.n27 VGP.n26 2.69187
R33 VGP.n28 VGP.n0 0.278367
R34 VGP.n24 VGP.n0 0.189894
R35 VGP.n24 VGP.n23 0.189894
R36 VGP.n23 VGP.n22 0.189894
R37 VGP.n22 VGP.n2 0.189894
R38 VGP.n18 VGP.n2 0.189894
R39 VGP.n18 VGP.n17 0.189894
R40 VGP.n17 VGP.n4 0.189894
R41 VGP.n13 VGP.n4 0.189894
R42 VGP.n13 VGP.n12 0.189894
R43 VGP.n12 VGP.n11 0.189894
R44 VGP.n11 VGP.n6 0.189894
R45 VGP VGP.n28 0.174287
R46 VOUT.n2 VOUT.n0 88.6584
R47 VOUT.n2 VOUT.n1 86.1831
R48 VOUT.n5 VOUT.n3 65.7587
R49 VOUT.n5 VOUT.n4 62.9053
R50 VOUT VOUT.n5 12.5652
R51 VOUT.n1 VOUT.t4 4.61114
R52 VOUT.n1 VOUT.t6 4.61114
R53 VOUT.n0 VOUT.t5 4.61114
R54 VOUT.n0 VOUT.t7 4.61114
R55 VOUT.n4 VOUT.t2 1.37741
R56 VOUT.n4 VOUT.t1 1.37741
R57 VOUT.n3 VOUT.t3 1.37741
R58 VOUT.n3 VOUT.t0 1.37741
R59 VOUT VOUT.n2 1.35826
R60 VIN.n1 VIN.t5 76.5903
R61 VIN.n2 VIN.t6 74.1159
R62 VIN.n1 VIN.n0 69.5055
R63 VIN.n4 VIN.t1 50.4568
R64 VIN.n5 VIN.t3 47.6033
R65 VIN.n4 VIN.n3 46.2265
R66 VIN VIN.n2 11.7462
R67 VIN.n0 VIN.t4 4.61114
R68 VIN.n0 VIN.t7 4.61114
R69 VIN.n5 VIN.n4 2.85395
R70 VIN.n2 VIN.n1 2.47464
R71 VIN.n3 VIN.t0 1.37741
R72 VIN.n3 VIN.t2 1.37741
R73 VIN VIN.n5 0.00481034
R74 VCC.n390 VCC.n28 395.123
R75 VCC.n339 VCC.n338 395.123
R76 VCC.n205 VCC.n135 395.123
R77 VCC.n207 VCC.n133 395.123
R78 VCC.n44 VCC.t8 274.846
R79 VCC.n148 VCC.t4 274.846
R80 VCC.n338 VCC.n337 185
R81 VCC.n338 VCC.n30 185
R82 VCC.n336 VCC.n48 185
R83 VCC.n328 VCC.n48 185
R84 VCC.n53 VCC.n49 185
R85 VCC.n329 VCC.n53 185
R86 VCC.n332 VCC.n331 185
R87 VCC.n331 VCC.n330 185
R88 VCC.n52 VCC.n51 185
R89 VCC.n327 VCC.n52 185
R90 VCC.n324 VCC.n323 185
R91 VCC.n325 VCC.n324 185
R92 VCC.n56 VCC.n55 185
R93 VCC.n55 VCC.n54 185
R94 VCC.n319 VCC.n318 185
R95 VCC.n318 VCC.n317 185
R96 VCC.n59 VCC.n58 185
R97 VCC.n316 VCC.n59 185
R98 VCC.n313 VCC.n312 185
R99 VCC.n314 VCC.n313 185
R100 VCC.n62 VCC.n61 185
R101 VCC.n61 VCC.n60 185
R102 VCC.n308 VCC.n307 185
R103 VCC.n307 VCC.n306 185
R104 VCC.n65 VCC.n64 185
R105 VCC.n305 VCC.n65 185
R106 VCC.n302 VCC.n301 185
R107 VCC.n303 VCC.n302 185
R108 VCC.n68 VCC.n67 185
R109 VCC.n67 VCC.n66 185
R110 VCC.n297 VCC.n296 185
R111 VCC.n296 VCC.n295 185
R112 VCC.n71 VCC.n70 185
R113 VCC.n294 VCC.n71 185
R114 VCC.n291 VCC.n290 185
R115 VCC.n292 VCC.n291 185
R116 VCC.n74 VCC.n73 185
R117 VCC.n73 VCC.n72 185
R118 VCC.n286 VCC.n285 185
R119 VCC.n285 VCC.n284 185
R120 VCC.n77 VCC.n76 185
R121 VCC.n283 VCC.n77 185
R122 VCC.n88 VCC.n86 185
R123 VCC.n86 VCC.n78 185
R124 VCC.n272 VCC.n271 185
R125 VCC.n273 VCC.n272 185
R126 VCC.n87 VCC.n85 185
R127 VCC.n274 VCC.n85 185
R128 VCC.n266 VCC.n265 185
R129 VCC.n265 VCC.n84 185
R130 VCC.n264 VCC.n90 185
R131 VCC.n264 VCC.n263 185
R132 VCC.n101 VCC.n91 185
R133 VCC.n92 VCC.n91 185
R134 VCC.n254 VCC.n253 185
R135 VCC.n255 VCC.n254 185
R136 VCC.n100 VCC.n99 185
R137 VCC.n99 VCC.n98 185
R138 VCC.n248 VCC.n247 185
R139 VCC.n247 VCC.n246 185
R140 VCC.n104 VCC.n103 185
R141 VCC.n105 VCC.n104 185
R142 VCC.n237 VCC.n236 185
R143 VCC.n238 VCC.n237 185
R144 VCC.n113 VCC.n112 185
R145 VCC.n112 VCC.n111 185
R146 VCC.n232 VCC.n231 185
R147 VCC.n231 VCC.n230 185
R148 VCC.n116 VCC.n115 185
R149 VCC.n117 VCC.n116 185
R150 VCC.n221 VCC.n220 185
R151 VCC.n222 VCC.n221 185
R152 VCC.n125 VCC.n124 185
R153 VCC.n124 VCC.n123 185
R154 VCC.n216 VCC.n215 185
R155 VCC.n215 VCC.n214 185
R156 VCC.n128 VCC.n127 185
R157 VCC.n129 VCC.n128 185
R158 VCC.n205 VCC.n204 185
R159 VCC.n206 VCC.n205 185
R160 VCC.n208 VCC.n207 185
R161 VCC.n207 VCC.n206 185
R162 VCC.n131 VCC.n130 185
R163 VCC.n130 VCC.n129 185
R164 VCC.n213 VCC.n212 185
R165 VCC.n214 VCC.n213 185
R166 VCC.n122 VCC.n121 185
R167 VCC.n123 VCC.n122 185
R168 VCC.n224 VCC.n223 185
R169 VCC.n223 VCC.n222 185
R170 VCC.n119 VCC.n118 185
R171 VCC.n118 VCC.n117 185
R172 VCC.n229 VCC.n228 185
R173 VCC.n230 VCC.n229 185
R174 VCC.n110 VCC.n109 185
R175 VCC.n111 VCC.n110 185
R176 VCC.n240 VCC.n239 185
R177 VCC.n239 VCC.n238 185
R178 VCC.n107 VCC.n106 185
R179 VCC.n106 VCC.n105 185
R180 VCC.n245 VCC.n244 185
R181 VCC.n246 VCC.n245 185
R182 VCC.n97 VCC.n96 185
R183 VCC.n98 VCC.n97 185
R184 VCC.n257 VCC.n256 185
R185 VCC.n256 VCC.n255 185
R186 VCC.n94 VCC.n93 185
R187 VCC.n93 VCC.n92 185
R188 VCC.n262 VCC.n261 185
R189 VCC.n263 VCC.n262 185
R190 VCC.n83 VCC.n82 185
R191 VCC.n84 VCC.n83 185
R192 VCC.n276 VCC.n275 185
R193 VCC.n275 VCC.n274 185
R194 VCC.n80 VCC.n79 185
R195 VCC.n273 VCC.n79 185
R196 VCC.n281 VCC.n280 185
R197 VCC.n281 VCC.n78 185
R198 VCC.n282 VCC.n2 185
R199 VCC.n283 VCC.n282 185
R200 VCC.n420 VCC.n3 185
R201 VCC.n284 VCC.n3 185
R202 VCC.n419 VCC.n4 185
R203 VCC.n72 VCC.n4 185
R204 VCC.n418 VCC.n5 185
R205 VCC.n292 VCC.n5 185
R206 VCC.n293 VCC.n6 185
R207 VCC.n294 VCC.n293 185
R208 VCC.n414 VCC.n8 185
R209 VCC.n295 VCC.n8 185
R210 VCC.n413 VCC.n9 185
R211 VCC.n66 VCC.n9 185
R212 VCC.n412 VCC.n10 185
R213 VCC.n303 VCC.n10 185
R214 VCC.n304 VCC.n11 185
R215 VCC.n305 VCC.n304 185
R216 VCC.n408 VCC.n13 185
R217 VCC.n306 VCC.n13 185
R218 VCC.n407 VCC.n14 185
R219 VCC.n60 VCC.n14 185
R220 VCC.n406 VCC.n15 185
R221 VCC.n314 VCC.n15 185
R222 VCC.n315 VCC.n16 185
R223 VCC.n316 VCC.n315 185
R224 VCC.n402 VCC.n18 185
R225 VCC.n317 VCC.n18 185
R226 VCC.n401 VCC.n19 185
R227 VCC.n54 VCC.n19 185
R228 VCC.n400 VCC.n20 185
R229 VCC.n325 VCC.n20 185
R230 VCC.n326 VCC.n21 185
R231 VCC.n327 VCC.n326 185
R232 VCC.n396 VCC.n23 185
R233 VCC.n330 VCC.n23 185
R234 VCC.n395 VCC.n24 185
R235 VCC.n329 VCC.n24 185
R236 VCC.n394 VCC.n25 185
R237 VCC.n328 VCC.n25 185
R238 VCC.n28 VCC.n26 185
R239 VCC.n30 VCC.n28 185
R240 VCC.n340 VCC.n339 185
R241 VCC.n342 VCC.n341 185
R242 VCC.n344 VCC.n343 185
R243 VCC.n346 VCC.n345 185
R244 VCC.n348 VCC.n347 185
R245 VCC.n350 VCC.n349 185
R246 VCC.n352 VCC.n351 185
R247 VCC.n354 VCC.n353 185
R248 VCC.n356 VCC.n355 185
R249 VCC.n358 VCC.n357 185
R250 VCC.n360 VCC.n359 185
R251 VCC.n362 VCC.n361 185
R252 VCC.n364 VCC.n363 185
R253 VCC.n366 VCC.n365 185
R254 VCC.n368 VCC.n367 185
R255 VCC.n370 VCC.n369 185
R256 VCC.n372 VCC.n371 185
R257 VCC.n374 VCC.n373 185
R258 VCC.n376 VCC.n375 185
R259 VCC.n378 VCC.n377 185
R260 VCC.n380 VCC.n379 185
R261 VCC.n382 VCC.n381 185
R262 VCC.n384 VCC.n383 185
R263 VCC.n385 VCC.n43 185
R264 VCC.n387 VCC.n386 185
R265 VCC.n29 VCC.n27 185
R266 VCC.n391 VCC.n390 185
R267 VCC.n390 VCC.n389 185
R268 VCC.n133 VCC.n132 185
R269 VCC.n152 VCC.n151 185
R270 VCC.n154 VCC.n147 185
R271 VCC.n147 VCC.n134 185
R272 VCC.n156 VCC.n155 185
R273 VCC.n158 VCC.n146 185
R274 VCC.n161 VCC.n160 185
R275 VCC.n162 VCC.n145 185
R276 VCC.n164 VCC.n163 185
R277 VCC.n166 VCC.n144 185
R278 VCC.n169 VCC.n168 185
R279 VCC.n170 VCC.n143 185
R280 VCC.n172 VCC.n171 185
R281 VCC.n174 VCC.n142 185
R282 VCC.n177 VCC.n176 185
R283 VCC.n178 VCC.n141 185
R284 VCC.n180 VCC.n179 185
R285 VCC.n182 VCC.n140 185
R286 VCC.n185 VCC.n184 185
R287 VCC.n186 VCC.n139 185
R288 VCC.n188 VCC.n187 185
R289 VCC.n190 VCC.n138 185
R290 VCC.n193 VCC.n192 185
R291 VCC.n194 VCC.n137 185
R292 VCC.n196 VCC.n195 185
R293 VCC.n198 VCC.n136 185
R294 VCC.n201 VCC.n200 185
R295 VCC.n202 VCC.n135 185
R296 VCC.n44 VCC.t10 170.094
R297 VCC.n148 VCC.t7 170.094
R298 VCC.n205 VCC.n128 146.341
R299 VCC.n215 VCC.n128 146.341
R300 VCC.n215 VCC.n124 146.341
R301 VCC.n221 VCC.n124 146.341
R302 VCC.n221 VCC.n116 146.341
R303 VCC.n231 VCC.n116 146.341
R304 VCC.n231 VCC.n112 146.341
R305 VCC.n237 VCC.n112 146.341
R306 VCC.n237 VCC.n104 146.341
R307 VCC.n247 VCC.n104 146.341
R308 VCC.n247 VCC.n99 146.341
R309 VCC.n254 VCC.n99 146.341
R310 VCC.n254 VCC.n91 146.341
R311 VCC.n264 VCC.n91 146.341
R312 VCC.n265 VCC.n264 146.341
R313 VCC.n265 VCC.n85 146.341
R314 VCC.n272 VCC.n85 146.341
R315 VCC.n272 VCC.n86 146.341
R316 VCC.n86 VCC.n77 146.341
R317 VCC.n285 VCC.n77 146.341
R318 VCC.n285 VCC.n73 146.341
R319 VCC.n291 VCC.n73 146.341
R320 VCC.n291 VCC.n71 146.341
R321 VCC.n296 VCC.n71 146.341
R322 VCC.n296 VCC.n67 146.341
R323 VCC.n302 VCC.n67 146.341
R324 VCC.n302 VCC.n65 146.341
R325 VCC.n307 VCC.n65 146.341
R326 VCC.n307 VCC.n61 146.341
R327 VCC.n313 VCC.n61 146.341
R328 VCC.n313 VCC.n59 146.341
R329 VCC.n318 VCC.n59 146.341
R330 VCC.n318 VCC.n55 146.341
R331 VCC.n324 VCC.n55 146.341
R332 VCC.n324 VCC.n52 146.341
R333 VCC.n331 VCC.n52 146.341
R334 VCC.n331 VCC.n53 146.341
R335 VCC.n53 VCC.n48 146.341
R336 VCC.n338 VCC.n48 146.341
R337 VCC.n207 VCC.n130 146.341
R338 VCC.n213 VCC.n130 146.341
R339 VCC.n213 VCC.n122 146.341
R340 VCC.n223 VCC.n122 146.341
R341 VCC.n223 VCC.n118 146.341
R342 VCC.n229 VCC.n118 146.341
R343 VCC.n229 VCC.n110 146.341
R344 VCC.n239 VCC.n110 146.341
R345 VCC.n239 VCC.n106 146.341
R346 VCC.n245 VCC.n106 146.341
R347 VCC.n245 VCC.n97 146.341
R348 VCC.n256 VCC.n97 146.341
R349 VCC.n256 VCC.n93 146.341
R350 VCC.n262 VCC.n93 146.341
R351 VCC.n262 VCC.n83 146.341
R352 VCC.n275 VCC.n83 146.341
R353 VCC.n275 VCC.n79 146.341
R354 VCC.n281 VCC.n79 146.341
R355 VCC.n282 VCC.n281 146.341
R356 VCC.n282 VCC.n3 146.341
R357 VCC.n4 VCC.n3 146.341
R358 VCC.n5 VCC.n4 146.341
R359 VCC.n293 VCC.n5 146.341
R360 VCC.n293 VCC.n8 146.341
R361 VCC.n9 VCC.n8 146.341
R362 VCC.n10 VCC.n9 146.341
R363 VCC.n304 VCC.n10 146.341
R364 VCC.n304 VCC.n13 146.341
R365 VCC.n14 VCC.n13 146.341
R366 VCC.n15 VCC.n14 146.341
R367 VCC.n315 VCC.n15 146.341
R368 VCC.n315 VCC.n18 146.341
R369 VCC.n19 VCC.n18 146.341
R370 VCC.n20 VCC.n19 146.341
R371 VCC.n326 VCC.n20 146.341
R372 VCC.n326 VCC.n23 146.341
R373 VCC.n24 VCC.n23 146.341
R374 VCC.n25 VCC.n24 146.341
R375 VCC.n28 VCC.n25 146.341
R376 VCC.n45 VCC.t11 114.433
R377 VCC.n149 VCC.t6 114.433
R378 VCC.n390 VCC.n29 99.5127
R379 VCC.n387 VCC.n43 99.5127
R380 VCC.n383 VCC.n382 99.5127
R381 VCC.n379 VCC.n378 99.5127
R382 VCC.n375 VCC.n374 99.5127
R383 VCC.n371 VCC.n370 99.5127
R384 VCC.n367 VCC.n366 99.5127
R385 VCC.n363 VCC.n362 99.5127
R386 VCC.n359 VCC.n358 99.5127
R387 VCC.n355 VCC.n354 99.5127
R388 VCC.n351 VCC.n350 99.5127
R389 VCC.n347 VCC.n346 99.5127
R390 VCC.n343 VCC.n342 99.5127
R391 VCC.n151 VCC.n147 99.5127
R392 VCC.n156 VCC.n147 99.5127
R393 VCC.n160 VCC.n158 99.5127
R394 VCC.n164 VCC.n145 99.5127
R395 VCC.n168 VCC.n166 99.5127
R396 VCC.n172 VCC.n143 99.5127
R397 VCC.n176 VCC.n174 99.5127
R398 VCC.n180 VCC.n141 99.5127
R399 VCC.n184 VCC.n182 99.5127
R400 VCC.n188 VCC.n139 99.5127
R401 VCC.n192 VCC.n190 99.5127
R402 VCC.n196 VCC.n137 99.5127
R403 VCC.n200 VCC.n198 99.5127
R404 VCC.n206 VCC.n134 77.4647
R405 VCC.n389 VCC.n30 77.4647
R406 VCC.n389 VCC.n31 72.8958
R407 VCC.n389 VCC.n32 72.8958
R408 VCC.n389 VCC.n33 72.8958
R409 VCC.n389 VCC.n34 72.8958
R410 VCC.n389 VCC.n35 72.8958
R411 VCC.n389 VCC.n36 72.8958
R412 VCC.n389 VCC.n37 72.8958
R413 VCC.n389 VCC.n38 72.8958
R414 VCC.n389 VCC.n39 72.8958
R415 VCC.n389 VCC.n40 72.8958
R416 VCC.n389 VCC.n41 72.8958
R417 VCC.n389 VCC.n42 72.8958
R418 VCC.n389 VCC.n388 72.8958
R419 VCC.n150 VCC.n134 72.8958
R420 VCC.n157 VCC.n134 72.8958
R421 VCC.n159 VCC.n134 72.8958
R422 VCC.n165 VCC.n134 72.8958
R423 VCC.n167 VCC.n134 72.8958
R424 VCC.n173 VCC.n134 72.8958
R425 VCC.n175 VCC.n134 72.8958
R426 VCC.n181 VCC.n134 72.8958
R427 VCC.n183 VCC.n134 72.8958
R428 VCC.n189 VCC.n134 72.8958
R429 VCC.n191 VCC.n134 72.8958
R430 VCC.n197 VCC.n134 72.8958
R431 VCC.n199 VCC.n134 72.8958
R432 VCC.n45 VCC.n44 55.6611
R433 VCC.n149 VCC.n148 55.6611
R434 VCC.n206 VCC.n129 42.5632
R435 VCC.n214 VCC.n129 42.5632
R436 VCC.n222 VCC.n123 42.5632
R437 VCC.n222 VCC.n117 42.5632
R438 VCC.n230 VCC.n117 42.5632
R439 VCC.n230 VCC.n111 42.5632
R440 VCC.n238 VCC.n111 42.5632
R441 VCC.n238 VCC.n105 42.5632
R442 VCC.n246 VCC.n105 42.5632
R443 VCC.n255 VCC.n98 42.5632
R444 VCC.n255 VCC.n92 42.5632
R445 VCC.n263 VCC.n92 42.5632
R446 VCC.n263 VCC.n84 42.5632
R447 VCC.n274 VCC.n84 42.5632
R448 VCC.n273 VCC.n78 42.5632
R449 VCC.n283 VCC.n78 42.5632
R450 VCC.n284 VCC.n283 42.5632
R451 VCC.n284 VCC.n72 42.5632
R452 VCC.n292 VCC.n72 42.5632
R453 VCC.n295 VCC.n294 42.5632
R454 VCC.n295 VCC.n66 42.5632
R455 VCC.n303 VCC.n66 42.5632
R456 VCC.n305 VCC.n303 42.5632
R457 VCC.n306 VCC.n305 42.5632
R458 VCC.n314 VCC.n60 42.5632
R459 VCC.n316 VCC.n314 42.5632
R460 VCC.n317 VCC.n316 42.5632
R461 VCC.n317 VCC.n54 42.5632
R462 VCC.n325 VCC.n54 42.5632
R463 VCC.n327 VCC.n325 42.5632
R464 VCC.n330 VCC.n327 42.5632
R465 VCC.n329 VCC.n328 42.5632
R466 VCC.n328 VCC.n30 42.5632
R467 VCC.n214 VCC.t5 41.2863
R468 VCC.t9 VCC.n329 41.2863
R469 VCC.n388 VCC.n387 39.2114
R470 VCC.n383 VCC.n42 39.2114
R471 VCC.n379 VCC.n41 39.2114
R472 VCC.n375 VCC.n40 39.2114
R473 VCC.n371 VCC.n39 39.2114
R474 VCC.n367 VCC.n38 39.2114
R475 VCC.n363 VCC.n37 39.2114
R476 VCC.n359 VCC.n36 39.2114
R477 VCC.n355 VCC.n35 39.2114
R478 VCC.n351 VCC.n34 39.2114
R479 VCC.n347 VCC.n33 39.2114
R480 VCC.n343 VCC.n32 39.2114
R481 VCC.n339 VCC.n31 39.2114
R482 VCC.n150 VCC.n133 39.2114
R483 VCC.n157 VCC.n156 39.2114
R484 VCC.n160 VCC.n159 39.2114
R485 VCC.n165 VCC.n164 39.2114
R486 VCC.n168 VCC.n167 39.2114
R487 VCC.n173 VCC.n172 39.2114
R488 VCC.n176 VCC.n175 39.2114
R489 VCC.n181 VCC.n180 39.2114
R490 VCC.n184 VCC.n183 39.2114
R491 VCC.n189 VCC.n188 39.2114
R492 VCC.n192 VCC.n191 39.2114
R493 VCC.n197 VCC.n196 39.2114
R494 VCC.n200 VCC.n199 39.2114
R495 VCC.n342 VCC.n31 39.2114
R496 VCC.n346 VCC.n32 39.2114
R497 VCC.n350 VCC.n33 39.2114
R498 VCC.n354 VCC.n34 39.2114
R499 VCC.n358 VCC.n35 39.2114
R500 VCC.n362 VCC.n36 39.2114
R501 VCC.n366 VCC.n37 39.2114
R502 VCC.n370 VCC.n38 39.2114
R503 VCC.n374 VCC.n39 39.2114
R504 VCC.n378 VCC.n40 39.2114
R505 VCC.n382 VCC.n41 39.2114
R506 VCC.n43 VCC.n42 39.2114
R507 VCC.n388 VCC.n29 39.2114
R508 VCC.n151 VCC.n150 39.2114
R509 VCC.n158 VCC.n157 39.2114
R510 VCC.n159 VCC.n145 39.2114
R511 VCC.n166 VCC.n165 39.2114
R512 VCC.n167 VCC.n143 39.2114
R513 VCC.n174 VCC.n173 39.2114
R514 VCC.n175 VCC.n141 39.2114
R515 VCC.n182 VCC.n181 39.2114
R516 VCC.n183 VCC.n139 39.2114
R517 VCC.n190 VCC.n189 39.2114
R518 VCC.n191 VCC.n137 39.2114
R519 VCC.n198 VCC.n197 39.2114
R520 VCC.n199 VCC.n135 39.2114
R521 VCC.n246 VCC.t2 37.8813
R522 VCC.t1 VCC.n60 37.8813
R523 VCC.n392 VCC.n391 29.7145
R524 VCC.n340 VCC.n47 29.7145
R525 VCC.n209 VCC.n132 29.7145
R526 VCC.n203 VCC.n202 29.7145
R527 VCC.n46 VCC.n45 29.2853
R528 VCC.n153 VCC.n149 29.2853
R529 VCC.n274 VCC.t0 26.815
R530 VCC.n294 VCC.t3 26.815
R531 VCC.n204 VCC.n127 19.3944
R532 VCC.n216 VCC.n127 19.3944
R533 VCC.n216 VCC.n125 19.3944
R534 VCC.n220 VCC.n125 19.3944
R535 VCC.n220 VCC.n115 19.3944
R536 VCC.n232 VCC.n115 19.3944
R537 VCC.n232 VCC.n113 19.3944
R538 VCC.n236 VCC.n113 19.3944
R539 VCC.n236 VCC.n103 19.3944
R540 VCC.n248 VCC.n103 19.3944
R541 VCC.n248 VCC.n100 19.3944
R542 VCC.n253 VCC.n100 19.3944
R543 VCC.n253 VCC.n101 19.3944
R544 VCC.n101 VCC.n90 19.3944
R545 VCC.n266 VCC.n90 19.3944
R546 VCC.n266 VCC.n87 19.3944
R547 VCC.n271 VCC.n87 19.3944
R548 VCC.n271 VCC.n88 19.3944
R549 VCC.n88 VCC.n76 19.3944
R550 VCC.n286 VCC.n76 19.3944
R551 VCC.n286 VCC.n74 19.3944
R552 VCC.n290 VCC.n74 19.3944
R553 VCC.n290 VCC.n70 19.3944
R554 VCC.n297 VCC.n70 19.3944
R555 VCC.n297 VCC.n68 19.3944
R556 VCC.n301 VCC.n68 19.3944
R557 VCC.n301 VCC.n64 19.3944
R558 VCC.n308 VCC.n64 19.3944
R559 VCC.n308 VCC.n62 19.3944
R560 VCC.n312 VCC.n62 19.3944
R561 VCC.n312 VCC.n58 19.3944
R562 VCC.n319 VCC.n58 19.3944
R563 VCC.n319 VCC.n56 19.3944
R564 VCC.n323 VCC.n56 19.3944
R565 VCC.n323 VCC.n51 19.3944
R566 VCC.n332 VCC.n51 19.3944
R567 VCC.n332 VCC.n49 19.3944
R568 VCC.n336 VCC.n49 19.3944
R569 VCC.n337 VCC.n336 19.3944
R570 VCC.n208 VCC.n131 19.3944
R571 VCC.n212 VCC.n131 19.3944
R572 VCC.n212 VCC.n121 19.3944
R573 VCC.n224 VCC.n121 19.3944
R574 VCC.n224 VCC.n119 19.3944
R575 VCC.n228 VCC.n119 19.3944
R576 VCC.n228 VCC.n109 19.3944
R577 VCC.n240 VCC.n109 19.3944
R578 VCC.n240 VCC.n107 19.3944
R579 VCC.n244 VCC.n107 19.3944
R580 VCC.n244 VCC.n96 19.3944
R581 VCC.n257 VCC.n96 19.3944
R582 VCC.n257 VCC.n94 19.3944
R583 VCC.n261 VCC.n94 19.3944
R584 VCC.n261 VCC.n82 19.3944
R585 VCC.n276 VCC.n82 19.3944
R586 VCC.n276 VCC.n80 19.3944
R587 VCC.n280 VCC.n80 19.3944
R588 VCC.n280 VCC.n2 19.3944
R589 VCC.n420 VCC.n2 19.3944
R590 VCC.n420 VCC.n419 19.3944
R591 VCC.n419 VCC.n418 19.3944
R592 VCC.n418 VCC.n6 19.3944
R593 VCC.n414 VCC.n6 19.3944
R594 VCC.n414 VCC.n413 19.3944
R595 VCC.n413 VCC.n412 19.3944
R596 VCC.n412 VCC.n11 19.3944
R597 VCC.n408 VCC.n11 19.3944
R598 VCC.n408 VCC.n407 19.3944
R599 VCC.n407 VCC.n406 19.3944
R600 VCC.n406 VCC.n16 19.3944
R601 VCC.n402 VCC.n16 19.3944
R602 VCC.n402 VCC.n401 19.3944
R603 VCC.n401 VCC.n400 19.3944
R604 VCC.n400 VCC.n21 19.3944
R605 VCC.n396 VCC.n21 19.3944
R606 VCC.n396 VCC.n395 19.3944
R607 VCC.n395 VCC.n394 19.3944
R608 VCC.n394 VCC.n26 19.3944
R609 VCC.t0 VCC.n273 15.7487
R610 VCC.t3 VCC.n292 15.7487
R611 VCC.n391 VCC.n27 10.6151
R612 VCC.n386 VCC.n385 10.6151
R613 VCC.n385 VCC.n384 10.6151
R614 VCC.n384 VCC.n381 10.6151
R615 VCC.n381 VCC.n380 10.6151
R616 VCC.n380 VCC.n377 10.6151
R617 VCC.n377 VCC.n376 10.6151
R618 VCC.n376 VCC.n373 10.6151
R619 VCC.n373 VCC.n372 10.6151
R620 VCC.n372 VCC.n369 10.6151
R621 VCC.n369 VCC.n368 10.6151
R622 VCC.n368 VCC.n365 10.6151
R623 VCC.n365 VCC.n364 10.6151
R624 VCC.n364 VCC.n361 10.6151
R625 VCC.n361 VCC.n360 10.6151
R626 VCC.n360 VCC.n357 10.6151
R627 VCC.n357 VCC.n356 10.6151
R628 VCC.n356 VCC.n353 10.6151
R629 VCC.n353 VCC.n352 10.6151
R630 VCC.n352 VCC.n349 10.6151
R631 VCC.n349 VCC.n348 10.6151
R632 VCC.n348 VCC.n345 10.6151
R633 VCC.n345 VCC.n344 10.6151
R634 VCC.n344 VCC.n341 10.6151
R635 VCC.n341 VCC.n340 10.6151
R636 VCC.n152 VCC.n132 10.6151
R637 VCC.n155 VCC.n154 10.6151
R638 VCC.n155 VCC.n146 10.6151
R639 VCC.n161 VCC.n146 10.6151
R640 VCC.n162 VCC.n161 10.6151
R641 VCC.n163 VCC.n162 10.6151
R642 VCC.n163 VCC.n144 10.6151
R643 VCC.n169 VCC.n144 10.6151
R644 VCC.n170 VCC.n169 10.6151
R645 VCC.n171 VCC.n170 10.6151
R646 VCC.n171 VCC.n142 10.6151
R647 VCC.n177 VCC.n142 10.6151
R648 VCC.n178 VCC.n177 10.6151
R649 VCC.n179 VCC.n178 10.6151
R650 VCC.n179 VCC.n140 10.6151
R651 VCC.n185 VCC.n140 10.6151
R652 VCC.n186 VCC.n185 10.6151
R653 VCC.n187 VCC.n186 10.6151
R654 VCC.n187 VCC.n138 10.6151
R655 VCC.n193 VCC.n138 10.6151
R656 VCC.n194 VCC.n193 10.6151
R657 VCC.n195 VCC.n194 10.6151
R658 VCC.n195 VCC.n136 10.6151
R659 VCC.n201 VCC.n136 10.6151
R660 VCC.n202 VCC.n201 10.6151
R661 VCC.n419 VCC.n0 9.3005
R662 VCC.n418 VCC.n417 9.3005
R663 VCC.n416 VCC.n6 9.3005
R664 VCC.n415 VCC.n414 9.3005
R665 VCC.n413 VCC.n7 9.3005
R666 VCC.n412 VCC.n411 9.3005
R667 VCC.n410 VCC.n11 9.3005
R668 VCC.n409 VCC.n408 9.3005
R669 VCC.n407 VCC.n12 9.3005
R670 VCC.n406 VCC.n405 9.3005
R671 VCC.n404 VCC.n16 9.3005
R672 VCC.n403 VCC.n402 9.3005
R673 VCC.n401 VCC.n17 9.3005
R674 VCC.n400 VCC.n399 9.3005
R675 VCC.n398 VCC.n21 9.3005
R676 VCC.n397 VCC.n396 9.3005
R677 VCC.n395 VCC.n22 9.3005
R678 VCC.n394 VCC.n393 9.3005
R679 VCC.n392 VCC.n26 9.3005
R680 VCC.n127 VCC.n126 9.3005
R681 VCC.n217 VCC.n216 9.3005
R682 VCC.n218 VCC.n125 9.3005
R683 VCC.n220 VCC.n219 9.3005
R684 VCC.n115 VCC.n114 9.3005
R685 VCC.n233 VCC.n232 9.3005
R686 VCC.n234 VCC.n113 9.3005
R687 VCC.n236 VCC.n235 9.3005
R688 VCC.n103 VCC.n102 9.3005
R689 VCC.n249 VCC.n248 9.3005
R690 VCC.n250 VCC.n100 9.3005
R691 VCC.n253 VCC.n252 9.3005
R692 VCC.n251 VCC.n101 9.3005
R693 VCC.n90 VCC.n89 9.3005
R694 VCC.n267 VCC.n266 9.3005
R695 VCC.n268 VCC.n87 9.3005
R696 VCC.n271 VCC.n270 9.3005
R697 VCC.n269 VCC.n88 9.3005
R698 VCC.n76 VCC.n75 9.3005
R699 VCC.n287 VCC.n286 9.3005
R700 VCC.n288 VCC.n74 9.3005
R701 VCC.n290 VCC.n289 9.3005
R702 VCC.n70 VCC.n69 9.3005
R703 VCC.n298 VCC.n297 9.3005
R704 VCC.n299 VCC.n68 9.3005
R705 VCC.n301 VCC.n300 9.3005
R706 VCC.n64 VCC.n63 9.3005
R707 VCC.n309 VCC.n308 9.3005
R708 VCC.n310 VCC.n62 9.3005
R709 VCC.n312 VCC.n311 9.3005
R710 VCC.n58 VCC.n57 9.3005
R711 VCC.n320 VCC.n319 9.3005
R712 VCC.n321 VCC.n56 9.3005
R713 VCC.n323 VCC.n322 9.3005
R714 VCC.n51 VCC.n50 9.3005
R715 VCC.n333 VCC.n332 9.3005
R716 VCC.n334 VCC.n49 9.3005
R717 VCC.n336 VCC.n335 9.3005
R718 VCC.n337 VCC.n47 9.3005
R719 VCC.n204 VCC.n203 9.3005
R720 VCC.n209 VCC.n208 9.3005
R721 VCC.n210 VCC.n131 9.3005
R722 VCC.n212 VCC.n211 9.3005
R723 VCC.n121 VCC.n120 9.3005
R724 VCC.n225 VCC.n224 9.3005
R725 VCC.n226 VCC.n119 9.3005
R726 VCC.n228 VCC.n227 9.3005
R727 VCC.n109 VCC.n108 9.3005
R728 VCC.n241 VCC.n240 9.3005
R729 VCC.n242 VCC.n107 9.3005
R730 VCC.n244 VCC.n243 9.3005
R731 VCC.n96 VCC.n95 9.3005
R732 VCC.n258 VCC.n257 9.3005
R733 VCC.n259 VCC.n94 9.3005
R734 VCC.n261 VCC.n260 9.3005
R735 VCC.n82 VCC.n81 9.3005
R736 VCC.n277 VCC.n276 9.3005
R737 VCC.n278 VCC.n80 9.3005
R738 VCC.n280 VCC.n279 9.3005
R739 VCC.n2 VCC.n1 9.3005
R740 VCC VCC.n420 9.3005
R741 VCC.n46 VCC.n27 6.5566
R742 VCC.n153 VCC.n152 6.5566
R743 VCC.t2 VCC.n98 4.6824
R744 VCC.n306 VCC.t1 4.6824
R745 VCC.n386 VCC.n46 4.05904
R746 VCC.n154 VCC.n153 4.05904
R747 VCC.t5 VCC.n123 1.27738
R748 VCC.n330 VCC.t9 1.27738
R749 VCC VCC.n0 0.152939
R750 VCC.n417 VCC.n0 0.152939
R751 VCC.n417 VCC.n416 0.152939
R752 VCC.n416 VCC.n415 0.152939
R753 VCC.n415 VCC.n7 0.152939
R754 VCC.n411 VCC.n7 0.152939
R755 VCC.n411 VCC.n410 0.152939
R756 VCC.n410 VCC.n409 0.152939
R757 VCC.n409 VCC.n12 0.152939
R758 VCC.n405 VCC.n12 0.152939
R759 VCC.n405 VCC.n404 0.152939
R760 VCC.n404 VCC.n403 0.152939
R761 VCC.n403 VCC.n17 0.152939
R762 VCC.n399 VCC.n17 0.152939
R763 VCC.n399 VCC.n398 0.152939
R764 VCC.n398 VCC.n397 0.152939
R765 VCC.n397 VCC.n22 0.152939
R766 VCC.n393 VCC.n22 0.152939
R767 VCC.n393 VCC.n392 0.152939
R768 VCC.n203 VCC.n126 0.152939
R769 VCC.n217 VCC.n126 0.152939
R770 VCC.n218 VCC.n217 0.152939
R771 VCC.n219 VCC.n218 0.152939
R772 VCC.n219 VCC.n114 0.152939
R773 VCC.n233 VCC.n114 0.152939
R774 VCC.n234 VCC.n233 0.152939
R775 VCC.n235 VCC.n234 0.152939
R776 VCC.n235 VCC.n102 0.152939
R777 VCC.n249 VCC.n102 0.152939
R778 VCC.n250 VCC.n249 0.152939
R779 VCC.n252 VCC.n250 0.152939
R780 VCC.n252 VCC.n251 0.152939
R781 VCC.n251 VCC.n89 0.152939
R782 VCC.n267 VCC.n89 0.152939
R783 VCC.n268 VCC.n267 0.152939
R784 VCC.n270 VCC.n268 0.152939
R785 VCC.n270 VCC.n269 0.152939
R786 VCC.n269 VCC.n75 0.152939
R787 VCC.n287 VCC.n75 0.152939
R788 VCC.n288 VCC.n287 0.152939
R789 VCC.n289 VCC.n288 0.152939
R790 VCC.n289 VCC.n69 0.152939
R791 VCC.n298 VCC.n69 0.152939
R792 VCC.n299 VCC.n298 0.152939
R793 VCC.n300 VCC.n299 0.152939
R794 VCC.n300 VCC.n63 0.152939
R795 VCC.n309 VCC.n63 0.152939
R796 VCC.n310 VCC.n309 0.152939
R797 VCC.n311 VCC.n310 0.152939
R798 VCC.n311 VCC.n57 0.152939
R799 VCC.n320 VCC.n57 0.152939
R800 VCC.n321 VCC.n320 0.152939
R801 VCC.n322 VCC.n321 0.152939
R802 VCC.n322 VCC.n50 0.152939
R803 VCC.n333 VCC.n50 0.152939
R804 VCC.n334 VCC.n333 0.152939
R805 VCC.n335 VCC.n334 0.152939
R806 VCC.n335 VCC.n47 0.152939
R807 VCC.n210 VCC.n209 0.152939
R808 VCC.n211 VCC.n210 0.152939
R809 VCC.n211 VCC.n120 0.152939
R810 VCC.n225 VCC.n120 0.152939
R811 VCC.n226 VCC.n225 0.152939
R812 VCC.n227 VCC.n226 0.152939
R813 VCC.n227 VCC.n108 0.152939
R814 VCC.n241 VCC.n108 0.152939
R815 VCC.n242 VCC.n241 0.152939
R816 VCC.n243 VCC.n242 0.152939
R817 VCC.n243 VCC.n95 0.152939
R818 VCC.n258 VCC.n95 0.152939
R819 VCC.n259 VCC.n258 0.152939
R820 VCC.n260 VCC.n259 0.152939
R821 VCC.n260 VCC.n81 0.152939
R822 VCC.n277 VCC.n81 0.152939
R823 VCC.n278 VCC.n277 0.152939
R824 VCC.n279 VCC.n278 0.152939
R825 VCC.n279 VCC.n1 0.152939
R826 VCC VCC.n1 0.1255
R827 VGN.n29 VGN.n28 161.3
R828 VGN.n27 VGN.n1 161.3
R829 VGN.n26 VGN.n25 161.3
R830 VGN.n24 VGN.n2 161.3
R831 VGN.n23 VGN.n22 161.3
R832 VGN.n21 VGN.n3 161.3
R833 VGN.n19 VGN.n18 161.3
R834 VGN.n17 VGN.n4 161.3
R835 VGN.n16 VGN.n15 161.3
R836 VGN.n14 VGN.n5 161.3
R837 VGN.n13 VGN.n12 161.3
R838 VGN.n11 VGN.n6 161.3
R839 VGN.n10 VGN.n9 161.3
R840 VGN.n7 VGN.t1 147.981
R841 VGN.n8 VGN.t0 116.296
R842 VGN.n20 VGN.t2 116.296
R843 VGN.n0 VGN.t3 116.296
R844 VGN.n30 VGN.n0 67.2516
R845 VGN.n8 VGN.n7 66.0814
R846 VGN.n26 VGN.n2 56.4773
R847 VGN.n14 VGN.n13 40.4106
R848 VGN.n15 VGN.n14 40.4106
R849 VGN.n13 VGN.n6 24.3439
R850 VGN.n9 VGN.n6 24.3439
R851 VGN.n22 VGN.n2 24.3439
R852 VGN.n22 VGN.n21 24.3439
R853 VGN.n19 VGN.n4 24.3439
R854 VGN.n15 VGN.n4 24.3439
R855 VGN.n28 VGN.n27 24.3439
R856 VGN.n27 VGN.n26 24.3439
R857 VGN.n28 VGN.n0 22.6399
R858 VGN.n21 VGN.n20 16.7975
R859 VGN.n9 VGN.n8 7.54696
R860 VGN.n20 VGN.n19 7.54696
R861 VGN.n10 VGN.n7 5.37324
R862 VGN.n30 VGN.n29 0.355081
R863 VGN VGN.n30 0.336926
R864 VGN.n29 VGN.n1 0.189894
R865 VGN.n25 VGN.n1 0.189894
R866 VGN.n25 VGN.n24 0.189894
R867 VGN.n24 VGN.n23 0.189894
R868 VGN.n23 VGN.n3 0.189894
R869 VGN.n18 VGN.n3 0.189894
R870 VGN.n18 VGN.n17 0.189894
R871 VGN.n17 VGN.n16 0.189894
R872 VGN.n16 VGN.n5 0.189894
R873 VGN.n12 VGN.n5 0.189894
R874 VGN.n12 VGN.n11 0.189894
R875 VGN.n11 VGN.n10 0.189894
R876 VSS.n291 VSS.n162 651.062
R877 VSS.n289 VSS.n164 651.062
R878 VSS.n534 VSS.n57 651.062
R879 VSS.n537 VSS.n30 651.062
R880 VSS.n292 VSS.n291 585
R881 VSS.n291 VSS.n290 585
R882 VSS.n160 VSS.n159 585
R883 VSS.n159 VSS.n157 585
R884 VSS.n297 VSS.n296 585
R885 VSS.n298 VSS.n297 585
R886 VSS.n151 VSS.n150 585
R887 VSS.n158 VSS.n151 585
R888 VSS.n308 VSS.n307 585
R889 VSS.n307 VSS.n306 585
R890 VSS.n148 VSS.n147 585
R891 VSS.n147 VSS.n146 585
R892 VSS.n313 VSS.n312 585
R893 VSS.n314 VSS.n313 585
R894 VSS.n139 VSS.n138 585
R895 VSS.n140 VSS.n139 585
R896 VSS.n324 VSS.n323 585
R897 VSS.n323 VSS.n322 585
R898 VSS.n136 VSS.n135 585
R899 VSS.n135 VSS.n134 585
R900 VSS.n329 VSS.n328 585
R901 VSS.n330 VSS.n329 585
R902 VSS.n127 VSS.n126 585
R903 VSS.n128 VSS.n127 585
R904 VSS.n340 VSS.n339 585
R905 VSS.n339 VSS.n338 585
R906 VSS.n124 VSS.n123 585
R907 VSS.n123 VSS.n122 585
R908 VSS.n345 VSS.n344 585
R909 VSS.n346 VSS.n345 585
R910 VSS.n115 VSS.n114 585
R911 VSS.n116 VSS.n115 585
R912 VSS.n356 VSS.n355 585
R913 VSS.n355 VSS.n354 585
R914 VSS.n112 VSS.n111 585
R915 VSS.n111 VSS.n109 585
R916 VSS.n361 VSS.n360 585
R917 VSS.n362 VSS.n361 585
R918 VSS.n101 VSS.n100 585
R919 VSS.n110 VSS.n101 585
R920 VSS.n373 VSS.n372 585
R921 VSS.n372 VSS.n371 585
R922 VSS.n98 VSS.n97 585
R923 VSS.n97 VSS.n95 585
R924 VSS.n378 VSS.n377 585
R925 VSS.n379 VSS.n378 585
R926 VSS.n94 VSS.n93 585
R927 VSS.n380 VSS.n94 585
R928 VSS.n384 VSS.n383 585
R929 VSS.n383 VSS.n382 585
R930 VSS.n91 VSS.n90 585
R931 VSS.n381 VSS.n90 585
R932 VSS.n389 VSS.n388 585
R933 VSS.n390 VSS.n389 585
R934 VSS.n88 VSS.n87 585
R935 VSS.n391 VSS.n88 585
R936 VSS.n394 VSS.n393 585
R937 VSS.n393 VSS.n392 585
R938 VSS.n85 VSS.n84 585
R939 VSS.n84 VSS.n82 585
R940 VSS.n399 VSS.n398 585
R941 VSS.n400 VSS.n399 585
R942 VSS.n81 VSS.n80 585
R943 VSS.n401 VSS.n81 585
R944 VSS.n404 VSS.n403 585
R945 VSS.n403 VSS.n402 585
R946 VSS.n78 VSS.n77 585
R947 VSS.n77 VSS.n75 585
R948 VSS.n409 VSS.n408 585
R949 VSS.n410 VSS.n409 585
R950 VSS.n74 VSS.n73 585
R951 VSS.n411 VSS.n74 585
R952 VSS.n414 VSS.n413 585
R953 VSS.n413 VSS.n412 585
R954 VSS.n71 VSS.n70 585
R955 VSS.n70 VSS.n68 585
R956 VSS.n419 VSS.n418 585
R957 VSS.n420 VSS.n419 585
R958 VSS.n67 VSS.n66 585
R959 VSS.n421 VSS.n67 585
R960 VSS.n425 VSS.n424 585
R961 VSS.n424 VSS.n423 585
R962 VSS.n64 VSS.n63 585
R963 VSS.n422 VSS.n63 585
R964 VSS.n431 VSS.n430 585
R965 VSS.n432 VSS.n431 585
R966 VSS.n61 VSS.n60 585
R967 VSS.n433 VSS.n61 585
R968 VSS.n436 VSS.n435 585
R969 VSS.n435 VSS.n434 585
R970 VSS.n437 VSS.n57 585
R971 VSS.n57 VSS.n33 585
R972 VSS.n540 VSS.n30 585
R973 VSS.n33 VSS.n30 585
R974 VSS.n541 VSS.n29 585
R975 VSS.n434 VSS.n29 585
R976 VSS.n542 VSS.n28 585
R977 VSS.n433 VSS.n28 585
R978 VSS.n62 VSS.n26 585
R979 VSS.n432 VSS.n62 585
R980 VSS.n546 VSS.n25 585
R981 VSS.n422 VSS.n25 585
R982 VSS.n547 VSS.n24 585
R983 VSS.n423 VSS.n24 585
R984 VSS.n548 VSS.n23 585
R985 VSS.n421 VSS.n23 585
R986 VSS.n69 VSS.n21 585
R987 VSS.n420 VSS.n69 585
R988 VSS.n552 VSS.n20 585
R989 VSS.n68 VSS.n20 585
R990 VSS.n553 VSS.n19 585
R991 VSS.n412 VSS.n19 585
R992 VSS.n554 VSS.n18 585
R993 VSS.n411 VSS.n18 585
R994 VSS.n76 VSS.n16 585
R995 VSS.n410 VSS.n76 585
R996 VSS.n558 VSS.n15 585
R997 VSS.n75 VSS.n15 585
R998 VSS.n559 VSS.n14 585