* NGSPICE file created from diff_pair_sample_0994.ext - technology: sky130A

.subckt diff_pair_sample_0994 VTAIL VN VP B VDD2 VDD1
X0 B.t15 B.t13 B.t14 B.t3 sky130_fd_pr__nfet_01v8 ad=5.1831 pd=27.36 as=0 ps=0 w=13.29 l=3.82
X1 B.t12 B.t10 B.t11 B.t7 sky130_fd_pr__nfet_01v8 ad=5.1831 pd=27.36 as=0 ps=0 w=13.29 l=3.82
X2 B.t9 B.t6 B.t8 B.t7 sky130_fd_pr__nfet_01v8 ad=5.1831 pd=27.36 as=0 ps=0 w=13.29 l=3.82
X3 VDD1.t1 VP.t0 VTAIL.t3 B.t0 sky130_fd_pr__nfet_01v8 ad=5.1831 pd=27.36 as=5.1831 ps=27.36 w=13.29 l=3.82
X4 VDD2.t1 VN.t0 VTAIL.t0 B.t0 sky130_fd_pr__nfet_01v8 ad=5.1831 pd=27.36 as=5.1831 ps=27.36 w=13.29 l=3.82
X5 B.t5 B.t2 B.t4 B.t3 sky130_fd_pr__nfet_01v8 ad=5.1831 pd=27.36 as=0 ps=0 w=13.29 l=3.82
X6 VDD1.t0 VP.t1 VTAIL.t2 B.t1 sky130_fd_pr__nfet_01v8 ad=5.1831 pd=27.36 as=5.1831 ps=27.36 w=13.29 l=3.82
X7 VDD2.t0 VN.t1 VTAIL.t1 B.t1 sky130_fd_pr__nfet_01v8 ad=5.1831 pd=27.36 as=5.1831 ps=27.36 w=13.29 l=3.82
R0 B.n771 B.n770 585
R1 B.n313 B.n112 585
R2 B.n312 B.n311 585
R3 B.n310 B.n309 585
R4 B.n308 B.n307 585
R5 B.n306 B.n305 585
R6 B.n304 B.n303 585
R7 B.n302 B.n301 585
R8 B.n300 B.n299 585
R9 B.n298 B.n297 585
R10 B.n296 B.n295 585
R11 B.n294 B.n293 585
R12 B.n292 B.n291 585
R13 B.n290 B.n289 585
R14 B.n288 B.n287 585
R15 B.n286 B.n285 585
R16 B.n284 B.n283 585
R17 B.n282 B.n281 585
R18 B.n280 B.n279 585
R19 B.n278 B.n277 585
R20 B.n276 B.n275 585
R21 B.n274 B.n273 585
R22 B.n272 B.n271 585
R23 B.n270 B.n269 585
R24 B.n268 B.n267 585
R25 B.n266 B.n265 585
R26 B.n264 B.n263 585
R27 B.n262 B.n261 585
R28 B.n260 B.n259 585
R29 B.n258 B.n257 585
R30 B.n256 B.n255 585
R31 B.n254 B.n253 585
R32 B.n252 B.n251 585
R33 B.n250 B.n249 585
R34 B.n248 B.n247 585
R35 B.n246 B.n245 585
R36 B.n244 B.n243 585
R37 B.n242 B.n241 585
R38 B.n240 B.n239 585
R39 B.n238 B.n237 585
R40 B.n236 B.n235 585
R41 B.n234 B.n233 585
R42 B.n232 B.n231 585
R43 B.n230 B.n229 585
R44 B.n228 B.n227 585
R45 B.n225 B.n224 585
R46 B.n223 B.n222 585
R47 B.n221 B.n220 585
R48 B.n219 B.n218 585
R49 B.n217 B.n216 585
R50 B.n215 B.n214 585
R51 B.n213 B.n212 585
R52 B.n211 B.n210 585
R53 B.n209 B.n208 585
R54 B.n207 B.n206 585
R55 B.n204 B.n203 585
R56 B.n202 B.n201 585
R57 B.n200 B.n199 585
R58 B.n198 B.n197 585
R59 B.n196 B.n195 585
R60 B.n194 B.n193 585
R61 B.n192 B.n191 585
R62 B.n190 B.n189 585
R63 B.n188 B.n187 585
R64 B.n186 B.n185 585
R65 B.n184 B.n183 585
R66 B.n182 B.n181 585
R67 B.n180 B.n179 585
R68 B.n178 B.n177 585
R69 B.n176 B.n175 585
R70 B.n174 B.n173 585
R71 B.n172 B.n171 585
R72 B.n170 B.n169 585
R73 B.n168 B.n167 585
R74 B.n166 B.n165 585
R75 B.n164 B.n163 585
R76 B.n162 B.n161 585
R77 B.n160 B.n159 585
R78 B.n158 B.n157 585
R79 B.n156 B.n155 585
R80 B.n154 B.n153 585
R81 B.n152 B.n151 585
R82 B.n150 B.n149 585
R83 B.n148 B.n147 585
R84 B.n146 B.n145 585
R85 B.n144 B.n143 585
R86 B.n142 B.n141 585
R87 B.n140 B.n139 585
R88 B.n138 B.n137 585
R89 B.n136 B.n135 585
R90 B.n134 B.n133 585
R91 B.n132 B.n131 585
R92 B.n130 B.n129 585
R93 B.n128 B.n127 585
R94 B.n126 B.n125 585
R95 B.n124 B.n123 585
R96 B.n122 B.n121 585
R97 B.n120 B.n119 585
R98 B.n118 B.n117 585
R99 B.n61 B.n60 585
R100 B.n769 B.n62 585
R101 B.n774 B.n62 585
R102 B.n768 B.n767 585
R103 B.n767 B.n58 585
R104 B.n766 B.n57 585
R105 B.n780 B.n57 585
R106 B.n765 B.n56 585
R107 B.n781 B.n56 585
R108 B.n764 B.n55 585
R109 B.n782 B.n55 585
R110 B.n763 B.n762 585
R111 B.n762 B.n51 585
R112 B.n761 B.n50 585
R113 B.n788 B.n50 585
R114 B.n760 B.n49 585
R115 B.n789 B.n49 585
R116 B.n759 B.n48 585
R117 B.n790 B.n48 585
R118 B.n758 B.n757 585
R119 B.n757 B.n47 585
R120 B.n756 B.n43 585
R121 B.n796 B.n43 585
R122 B.n755 B.n42 585
R123 B.n797 B.n42 585
R124 B.n754 B.n41 585
R125 B.n798 B.n41 585
R126 B.n753 B.n752 585
R127 B.n752 B.n37 585
R128 B.n751 B.n36 585
R129 B.n804 B.n36 585
R130 B.n750 B.n35 585
R131 B.n805 B.n35 585
R132 B.n749 B.n34 585
R133 B.n806 B.n34 585
R134 B.n748 B.n747 585
R135 B.n747 B.n30 585
R136 B.n746 B.n29 585
R137 B.n812 B.n29 585
R138 B.n745 B.n28 585
R139 B.n813 B.n28 585
R140 B.n744 B.n27 585
R141 B.n814 B.n27 585
R142 B.n743 B.n742 585
R143 B.n742 B.n23 585
R144 B.n741 B.n22 585
R145 B.n820 B.n22 585
R146 B.n740 B.n21 585
R147 B.n821 B.n21 585
R148 B.n739 B.n20 585
R149 B.n822 B.n20 585
R150 B.n738 B.n737 585
R151 B.n737 B.n16 585
R152 B.n736 B.n15 585
R153 B.n828 B.n15 585
R154 B.n735 B.n14 585
R155 B.n829 B.n14 585
R156 B.n734 B.n13 585
R157 B.n830 B.n13 585
R158 B.n733 B.n732 585
R159 B.n732 B.n12 585
R160 B.n731 B.n730 585
R161 B.n731 B.n8 585
R162 B.n729 B.n7 585
R163 B.n837 B.n7 585
R164 B.n728 B.n6 585
R165 B.n838 B.n6 585
R166 B.n727 B.n5 585
R167 B.n839 B.n5 585
R168 B.n726 B.n725 585
R169 B.n725 B.n4 585
R170 B.n724 B.n314 585
R171 B.n724 B.n723 585
R172 B.n714 B.n315 585
R173 B.n316 B.n315 585
R174 B.n716 B.n715 585
R175 B.n717 B.n716 585
R176 B.n713 B.n321 585
R177 B.n321 B.n320 585
R178 B.n712 B.n711 585
R179 B.n711 B.n710 585
R180 B.n323 B.n322 585
R181 B.n324 B.n323 585
R182 B.n703 B.n702 585
R183 B.n704 B.n703 585
R184 B.n701 B.n329 585
R185 B.n329 B.n328 585
R186 B.n700 B.n699 585
R187 B.n699 B.n698 585
R188 B.n331 B.n330 585
R189 B.n332 B.n331 585
R190 B.n691 B.n690 585
R191 B.n692 B.n691 585
R192 B.n689 B.n337 585
R193 B.n337 B.n336 585
R194 B.n688 B.n687 585
R195 B.n687 B.n686 585
R196 B.n339 B.n338 585
R197 B.n340 B.n339 585
R198 B.n679 B.n678 585
R199 B.n680 B.n679 585
R200 B.n677 B.n345 585
R201 B.n345 B.n344 585
R202 B.n676 B.n675 585
R203 B.n675 B.n674 585
R204 B.n347 B.n346 585
R205 B.n348 B.n347 585
R206 B.n667 B.n666 585
R207 B.n668 B.n667 585
R208 B.n665 B.n353 585
R209 B.n353 B.n352 585
R210 B.n664 B.n663 585
R211 B.n663 B.n662 585
R212 B.n355 B.n354 585
R213 B.n655 B.n355 585
R214 B.n654 B.n653 585
R215 B.n656 B.n654 585
R216 B.n652 B.n360 585
R217 B.n360 B.n359 585
R218 B.n651 B.n650 585
R219 B.n650 B.n649 585
R220 B.n362 B.n361 585
R221 B.n363 B.n362 585
R222 B.n642 B.n641 585
R223 B.n643 B.n642 585
R224 B.n640 B.n368 585
R225 B.n368 B.n367 585
R226 B.n639 B.n638 585
R227 B.n638 B.n637 585
R228 B.n370 B.n369 585
R229 B.n371 B.n370 585
R230 B.n630 B.n629 585
R231 B.n631 B.n630 585
R232 B.n374 B.n373 585
R233 B.n433 B.n432 585
R234 B.n434 B.n430 585
R235 B.n430 B.n375 585
R236 B.n436 B.n435 585
R237 B.n438 B.n429 585
R238 B.n441 B.n440 585
R239 B.n442 B.n428 585
R240 B.n444 B.n443 585
R241 B.n446 B.n427 585
R242 B.n449 B.n448 585
R243 B.n450 B.n426 585
R244 B.n452 B.n451 585
R245 B.n454 B.n425 585
R246 B.n457 B.n456 585
R247 B.n458 B.n424 585
R248 B.n460 B.n459 585
R249 B.n462 B.n423 585
R250 B.n465 B.n464 585
R251 B.n466 B.n422 585
R252 B.n468 B.n467 585
R253 B.n470 B.n421 585
R254 B.n473 B.n472 585
R255 B.n474 B.n420 585
R256 B.n476 B.n475 585
R257 B.n478 B.n419 585
R258 B.n481 B.n480 585
R259 B.n482 B.n418 585
R260 B.n484 B.n483 585
R261 B.n486 B.n417 585
R262 B.n489 B.n488 585
R263 B.n490 B.n416 585
R264 B.n492 B.n491 585
R265 B.n494 B.n415 585
R266 B.n497 B.n496 585
R267 B.n498 B.n414 585
R268 B.n500 B.n499 585
R269 B.n502 B.n413 585
R270 B.n505 B.n504 585
R271 B.n506 B.n412 585
R272 B.n508 B.n507 585
R273 B.n510 B.n411 585
R274 B.n513 B.n512 585
R275 B.n514 B.n410 585
R276 B.n516 B.n515 585
R277 B.n518 B.n409 585
R278 B.n521 B.n520 585
R279 B.n522 B.n405 585
R280 B.n524 B.n523 585
R281 B.n526 B.n404 585
R282 B.n529 B.n528 585
R283 B.n530 B.n403 585
R284 B.n532 B.n531 585
R285 B.n534 B.n402 585
R286 B.n537 B.n536 585
R287 B.n538 B.n399 585
R288 B.n541 B.n540 585
R289 B.n543 B.n398 585
R290 B.n546 B.n545 585
R291 B.n547 B.n397 585
R292 B.n549 B.n548 585
R293 B.n551 B.n396 585
R294 B.n554 B.n553 585
R295 B.n555 B.n395 585
R296 B.n557 B.n556 585
R297 B.n559 B.n394 585
R298 B.n562 B.n561 585
R299 B.n563 B.n393 585
R300 B.n565 B.n564 585
R301 B.n567 B.n392 585
R302 B.n570 B.n569 585
R303 B.n571 B.n391 585
R304 B.n573 B.n572 585
R305 B.n575 B.n390 585
R306 B.n578 B.n577 585
R307 B.n579 B.n389 585
R308 B.n581 B.n580 585
R309 B.n583 B.n388 585
R310 B.n586 B.n585 585
R311 B.n587 B.n387 585
R312 B.n589 B.n588 585
R313 B.n591 B.n386 585
R314 B.n594 B.n593 585
R315 B.n595 B.n385 585
R316 B.n597 B.n596 585
R317 B.n599 B.n384 585
R318 B.n602 B.n601 585
R319 B.n603 B.n383 585
R320 B.n605 B.n604 585
R321 B.n607 B.n382 585
R322 B.n610 B.n609 585
R323 B.n611 B.n381 585
R324 B.n613 B.n612 585
R325 B.n615 B.n380 585
R326 B.n618 B.n617 585
R327 B.n619 B.n379 585
R328 B.n621 B.n620 585
R329 B.n623 B.n378 585
R330 B.n624 B.n377 585
R331 B.n627 B.n626 585
R332 B.n628 B.n376 585
R333 B.n376 B.n375 585
R334 B.n633 B.n632 585
R335 B.n632 B.n631 585
R336 B.n634 B.n372 585
R337 B.n372 B.n371 585
R338 B.n636 B.n635 585
R339 B.n637 B.n636 585
R340 B.n366 B.n365 585
R341 B.n367 B.n366 585
R342 B.n645 B.n644 585
R343 B.n644 B.n643 585
R344 B.n646 B.n364 585
R345 B.n364 B.n363 585
R346 B.n648 B.n647 585
R347 B.n649 B.n648 585
R348 B.n358 B.n357 585
R349 B.n359 B.n358 585
R350 B.n658 B.n657 585
R351 B.n657 B.n656 585
R352 B.n659 B.n356 585
R353 B.n655 B.n356 585
R354 B.n661 B.n660 585
R355 B.n662 B.n661 585
R356 B.n351 B.n350 585
R357 B.n352 B.n351 585
R358 B.n670 B.n669 585
R359 B.n669 B.n668 585
R360 B.n671 B.n349 585
R361 B.n349 B.n348 585
R362 B.n673 B.n672 585
R363 B.n674 B.n673 585
R364 B.n343 B.n342 585
R365 B.n344 B.n343 585
R366 B.n682 B.n681 585
R367 B.n681 B.n680 585
R368 B.n683 B.n341 585
R369 B.n341 B.n340 585
R370 B.n685 B.n684 585
R371 B.n686 B.n685 585
R372 B.n335 B.n334 585
R373 B.n336 B.n335 585
R374 B.n694 B.n693 585
R375 B.n693 B.n692 585
R376 B.n695 B.n333 585
R377 B.n333 B.n332 585
R378 B.n697 B.n696 585
R379 B.n698 B.n697 585
R380 B.n327 B.n326 585
R381 B.n328 B.n327 585
R382 B.n706 B.n705 585
R383 B.n705 B.n704 585
R384 B.n707 B.n325 585
R385 B.n325 B.n324 585
R386 B.n709 B.n708 585
R387 B.n710 B.n709 585
R388 B.n319 B.n318 585
R389 B.n320 B.n319 585
R390 B.n719 B.n718 585
R391 B.n718 B.n717 585
R392 B.n720 B.n317 585
R393 B.n317 B.n316 585
R394 B.n722 B.n721 585
R395 B.n723 B.n722 585
R396 B.n3 B.n0 585
R397 B.n4 B.n3 585
R398 B.n836 B.n1 585
R399 B.n837 B.n836 585
R400 B.n835 B.n834 585
R401 B.n835 B.n8 585
R402 B.n833 B.n9 585
R403 B.n12 B.n9 585
R404 B.n832 B.n831 585
R405 B.n831 B.n830 585
R406 B.n11 B.n10 585
R407 B.n829 B.n11 585
R408 B.n827 B.n826 585
R409 B.n828 B.n827 585
R410 B.n825 B.n17 585
R411 B.n17 B.n16 585
R412 B.n824 B.n823 585
R413 B.n823 B.n822 585
R414 B.n19 B.n18 585
R415 B.n821 B.n19 585
R416 B.n819 B.n818 585
R417 B.n820 B.n819 585
R418 B.n817 B.n24 585
R419 B.n24 B.n23 585
R420 B.n816 B.n815 585
R421 B.n815 B.n814 585
R422 B.n26 B.n25 585
R423 B.n813 B.n26 585
R424 B.n811 B.n810 585
R425 B.n812 B.n811 585
R426 B.n809 B.n31 585
R427 B.n31 B.n30 585
R428 B.n808 B.n807 585
R429 B.n807 B.n806 585
R430 B.n33 B.n32 585
R431 B.n805 B.n33 585
R432 B.n803 B.n802 585
R433 B.n804 B.n803 585
R434 B.n801 B.n38 585
R435 B.n38 B.n37 585
R436 B.n800 B.n799 585
R437 B.n799 B.n798 585
R438 B.n40 B.n39 585
R439 B.n797 B.n40 585
R440 B.n795 B.n794 585
R441 B.n796 B.n795 585
R442 B.n793 B.n44 585
R443 B.n47 B.n44 585
R444 B.n792 B.n791 585
R445 B.n791 B.n790 585
R446 B.n46 B.n45 585
R447 B.n789 B.n46 585
R448 B.n787 B.n786 585
R449 B.n788 B.n787 585
R450 B.n785 B.n52 585
R451 B.n52 B.n51 585
R452 B.n784 B.n783 585
R453 B.n783 B.n782 585
R454 B.n54 B.n53 585
R455 B.n781 B.n54 585
R456 B.n779 B.n778 585
R457 B.n780 B.n779 585
R458 B.n777 B.n59 585
R459 B.n59 B.n58 585
R460 B.n776 B.n775 585
R461 B.n775 B.n774 585
R462 B.n840 B.n839 585
R463 B.n838 B.n2 585
R464 B.n775 B.n61 535.745
R465 B.n771 B.n62 535.745
R466 B.n630 B.n376 535.745
R467 B.n632 B.n374 535.745
R468 B.n113 B.t8 384.56
R469 B.n400 B.t5 384.56
R470 B.n115 B.t11 384.56
R471 B.n406 B.t15 384.56
R472 B.n114 B.t9 304.075
R473 B.n401 B.t4 304.075
R474 B.n116 B.t12 304.075
R475 B.n407 B.t14 304.075
R476 B.n115 B.t10 293.204
R477 B.n113 B.t6 293.204
R478 B.n400 B.t2 293.204
R479 B.n406 B.t13 293.204
R480 B.n773 B.n772 256.663
R481 B.n773 B.n111 256.663
R482 B.n773 B.n110 256.663
R483 B.n773 B.n109 256.663
R484 B.n773 B.n108 256.663
R485 B.n773 B.n107 256.663
R486 B.n773 B.n106 256.663
R487 B.n773 B.n105 256.663
R488 B.n773 B.n104 256.663
R489 B.n773 B.n103 256.663
R490 B.n773 B.n102 256.663
R491 B.n773 B.n101 256.663
R492 B.n773 B.n100 256.663
R493 B.n773 B.n99 256.663
R494 B.n773 B.n98 256.663
R495 B.n773 B.n97 256.663
R496 B.n773 B.n96 256.663
R497 B.n773 B.n95 256.663
R498 B.n773 B.n94 256.663
R499 B.n773 B.n93 256.663
R500 B.n773 B.n92 256.663
R501 B.n773 B.n91 256.663
R502 B.n773 B.n90 256.663
R503 B.n773 B.n89 256.663
R504 B.n773 B.n88 256.663
R505 B.n773 B.n87 256.663
R506 B.n773 B.n86 256.663
R507 B.n773 B.n85 256.663
R508 B.n773 B.n84 256.663
R509 B.n773 B.n83 256.663
R510 B.n773 B.n82 256.663
R511 B.n773 B.n81 256.663
R512 B.n773 B.n80 256.663
R513 B.n773 B.n79 256.663
R514 B.n773 B.n78 256.663
R515 B.n773 B.n77 256.663
R516 B.n773 B.n76 256.663
R517 B.n773 B.n75 256.663
R518 B.n773 B.n74 256.663
R519 B.n773 B.n73 256.663
R520 B.n773 B.n72 256.663
R521 B.n773 B.n71 256.663
R522 B.n773 B.n70 256.663
R523 B.n773 B.n69 256.663
R524 B.n773 B.n68 256.663
R525 B.n773 B.n67 256.663
R526 B.n773 B.n66 256.663
R527 B.n773 B.n65 256.663
R528 B.n773 B.n64 256.663
R529 B.n773 B.n63 256.663
R530 B.n431 B.n375 256.663
R531 B.n437 B.n375 256.663
R532 B.n439 B.n375 256.663
R533 B.n445 B.n375 256.663
R534 B.n447 B.n375 256.663
R535 B.n453 B.n375 256.663
R536 B.n455 B.n375 256.663
R537 B.n461 B.n375 256.663
R538 B.n463 B.n375 256.663
R539 B.n469 B.n375 256.663
R540 B.n471 B.n375 256.663
R541 B.n477 B.n375 256.663
R542 B.n479 B.n375 256.663
R543 B.n485 B.n375 256.663
R544 B.n487 B.n375 256.663
R545 B.n493 B.n375 256.663
R546 B.n495 B.n375 256.663
R547 B.n501 B.n375 256.663
R548 B.n503 B.n375 256.663
R549 B.n509 B.n375 256.663
R550 B.n511 B.n375 256.663
R551 B.n517 B.n375 256.663
R552 B.n519 B.n375 256.663
R553 B.n525 B.n375 256.663
R554 B.n527 B.n375 256.663
R555 B.n533 B.n375 256.663
R556 B.n535 B.n375 256.663
R557 B.n542 B.n375 256.663
R558 B.n544 B.n375 256.663
R559 B.n550 B.n375 256.663
R560 B.n552 B.n375 256.663
R561 B.n558 B.n375 256.663
R562 B.n560 B.n375 256.663
R563 B.n566 B.n375 256.663
R564 B.n568 B.n375 256.663
R565 B.n574 B.n375 256.663
R566 B.n576 B.n375 256.663
R567 B.n582 B.n375 256.663
R568 B.n584 B.n375 256.663
R569 B.n590 B.n375 256.663
R570 B.n592 B.n375 256.663
R571 B.n598 B.n375 256.663
R572 B.n600 B.n375 256.663
R573 B.n606 B.n375 256.663
R574 B.n608 B.n375 256.663
R575 B.n614 B.n375 256.663
R576 B.n616 B.n375 256.663
R577 B.n622 B.n375 256.663
R578 B.n625 B.n375 256.663
R579 B.n842 B.n841 256.663
R580 B.n119 B.n118 163.367
R581 B.n123 B.n122 163.367
R582 B.n127 B.n126 163.367
R583 B.n131 B.n130 163.367
R584 B.n135 B.n134 163.367
R585 B.n139 B.n138 163.367
R586 B.n143 B.n142 163.367
R587 B.n147 B.n146 163.367
R588 B.n151 B.n150 163.367
R589 B.n155 B.n154 163.367
R590 B.n159 B.n158 163.367
R591 B.n163 B.n162 163.367
R592 B.n167 B.n166 163.367
R593 B.n171 B.n170 163.367
R594 B.n175 B.n174 163.367
R595 B.n179 B.n178 163.367
R596 B.n183 B.n182 163.367
R597 B.n187 B.n186 163.367
R598 B.n191 B.n190 163.367
R599 B.n195 B.n194 163.367
R600 B.n199 B.n198 163.367
R601 B.n203 B.n202 163.367
R602 B.n208 B.n207 163.367
R603 B.n212 B.n211 163.367
R604 B.n216 B.n215 163.367
R605 B.n220 B.n219 163.367
R606 B.n224 B.n223 163.367
R607 B.n229 B.n228 163.367
R608 B.n233 B.n232 163.367
R609 B.n237 B.n236 163.367
R610 B.n241 B.n240 163.367
R611 B.n245 B.n244 163.367
R612 B.n249 B.n248 163.367
R613 B.n253 B.n252 163.367
R614 B.n257 B.n256 163.367
R615 B.n261 B.n260 163.367
R616 B.n265 B.n264 163.367
R617 B.n269 B.n268 163.367
R618 B.n273 B.n272 163.367
R619 B.n277 B.n276 163.367
R620 B.n281 B.n280 163.367
R621 B.n285 B.n284 163.367
R622 B.n289 B.n288 163.367
R623 B.n293 B.n292 163.367
R624 B.n297 B.n296 163.367
R625 B.n301 B.n300 163.367
R626 B.n305 B.n304 163.367
R627 B.n309 B.n308 163.367
R628 B.n311 B.n112 163.367
R629 B.n630 B.n370 163.367
R630 B.n638 B.n370 163.367
R631 B.n638 B.n368 163.367
R632 B.n642 B.n368 163.367
R633 B.n642 B.n362 163.367
R634 B.n650 B.n362 163.367
R635 B.n650 B.n360 163.367
R636 B.n654 B.n360 163.367
R637 B.n654 B.n355 163.367
R638 B.n663 B.n355 163.367
R639 B.n663 B.n353 163.367
R640 B.n667 B.n353 163.367
R641 B.n667 B.n347 163.367
R642 B.n675 B.n347 163.367
R643 B.n675 B.n345 163.367
R644 B.n679 B.n345 163.367
R645 B.n679 B.n339 163.367
R646 B.n687 B.n339 163.367
R647 B.n687 B.n337 163.367
R648 B.n691 B.n337 163.367
R649 B.n691 B.n331 163.367
R650 B.n699 B.n331 163.367
R651 B.n699 B.n329 163.367
R652 B.n703 B.n329 163.367
R653 B.n703 B.n323 163.367
R654 B.n711 B.n323 163.367
R655 B.n711 B.n321 163.367
R656 B.n716 B.n321 163.367
R657 B.n716 B.n315 163.367
R658 B.n724 B.n315 163.367
R659 B.n725 B.n724 163.367
R660 B.n725 B.n5 163.367
R661 B.n6 B.n5 163.367
R662 B.n7 B.n6 163.367
R663 B.n731 B.n7 163.367
R664 B.n732 B.n731 163.367
R665 B.n732 B.n13 163.367
R666 B.n14 B.n13 163.367
R667 B.n15 B.n14 163.367
R668 B.n737 B.n15 163.367
R669 B.n737 B.n20 163.367
R670 B.n21 B.n20 163.367
R671 B.n22 B.n21 163.367
R672 B.n742 B.n22 163.367
R673 B.n742 B.n27 163.367
R674 B.n28 B.n27 163.367
R675 B.n29 B.n28 163.367
R676 B.n747 B.n29 163.367
R677 B.n747 B.n34 163.367
R678 B.n35 B.n34 163.367
R679 B.n36 B.n35 163.367
R680 B.n752 B.n36 163.367
R681 B.n752 B.n41 163.367
R682 B.n42 B.n41 163.367
R683 B.n43 B.n42 163.367
R684 B.n757 B.n43 163.367
R685 B.n757 B.n48 163.367
R686 B.n49 B.n48 163.367
R687 B.n50 B.n49 163.367
R688 B.n762 B.n50 163.367
R689 B.n762 B.n55 163.367
R690 B.n56 B.n55 163.367
R691 B.n57 B.n56 163.367
R692 B.n767 B.n57 163.367
R693 B.n767 B.n62 163.367
R694 B.n432 B.n430 163.367
R695 B.n436 B.n430 163.367
R696 B.n440 B.n438 163.367
R697 B.n444 B.n428 163.367
R698 B.n448 B.n446 163.367
R699 B.n452 B.n426 163.367
R700 B.n456 B.n454 163.367
R701 B.n460 B.n424 163.367
R702 B.n464 B.n462 163.367
R703 B.n468 B.n422 163.367
R704 B.n472 B.n470 163.367
R705 B.n476 B.n420 163.367
R706 B.n480 B.n478 163.367
R707 B.n484 B.n418 163.367
R708 B.n488 B.n486 163.367
R709 B.n492 B.n416 163.367
R710 B.n496 B.n494 163.367
R711 B.n500 B.n414 163.367
R712 B.n504 B.n502 163.367
R713 B.n508 B.n412 163.367
R714 B.n512 B.n510 163.367
R715 B.n516 B.n410 163.367
R716 B.n520 B.n518 163.367
R717 B.n524 B.n405 163.367
R718 B.n528 B.n526 163.367
R719 B.n532 B.n403 163.367
R720 B.n536 B.n534 163.367
R721 B.n541 B.n399 163.367
R722 B.n545 B.n543 163.367
R723 B.n549 B.n397 163.367
R724 B.n553 B.n551 163.367
R725 B.n557 B.n395 163.367
R726 B.n561 B.n559 163.367
R727 B.n565 B.n393 163.367
R728 B.n569 B.n567 163.367
R729 B.n573 B.n391 163.367
R730 B.n577 B.n575 163.367
R731 B.n581 B.n389 163.367
R732 B.n585 B.n583 163.367
R733 B.n589 B.n387 163.367
R734 B.n593 B.n591 163.367
R735 B.n597 B.n385 163.367
R736 B.n601 B.n599 163.367
R737 B.n605 B.n383 163.367
R738 B.n609 B.n607 163.367
R739 B.n613 B.n381 163.367
R740 B.n617 B.n615 163.367
R741 B.n621 B.n379 163.367
R742 B.n624 B.n623 163.367
R743 B.n626 B.n376 163.367
R744 B.n632 B.n372 163.367
R745 B.n636 B.n372 163.367
R746 B.n636 B.n366 163.367
R747 B.n644 B.n366 163.367
R748 B.n644 B.n364 163.367
R749 B.n648 B.n364 163.367
R750 B.n648 B.n358 163.367
R751 B.n657 B.n358 163.367
R752 B.n657 B.n356 163.367
R753 B.n661 B.n356 163.367
R754 B.n661 B.n351 163.367
R755 B.n669 B.n351 163.367
R756 B.n669 B.n349 163.367
R757 B.n673 B.n349 163.367
R758 B.n673 B.n343 163.367
R759 B.n681 B.n343 163.367
R760 B.n681 B.n341 163.367
R761 B.n685 B.n341 163.367
R762 B.n685 B.n335 163.367
R763 B.n693 B.n335 163.367
R764 B.n693 B.n333 163.367
R765 B.n697 B.n333 163.367
R766 B.n697 B.n327 163.367
R767 B.n705 B.n327 163.367
R768 B.n705 B.n325 163.367
R769 B.n709 B.n325 163.367
R770 B.n709 B.n319 163.367
R771 B.n718 B.n319 163.367
R772 B.n718 B.n317 163.367
R773 B.n722 B.n317 163.367
R774 B.n722 B.n3 163.367
R775 B.n840 B.n3 163.367
R776 B.n836 B.n2 163.367
R777 B.n836 B.n835 163.367
R778 B.n835 B.n9 163.367
R779 B.n831 B.n9 163.367
R780 B.n831 B.n11 163.367
R781 B.n827 B.n11 163.367
R782 B.n827 B.n17 163.367
R783 B.n823 B.n17 163.367
R784 B.n823 B.n19 163.367
R785 B.n819 B.n19 163.367
R786 B.n819 B.n24 163.367
R787 B.n815 B.n24 163.367
R788 B.n815 B.n26 163.367
R789 B.n811 B.n26 163.367
R790 B.n811 B.n31 163.367
R791 B.n807 B.n31 163.367
R792 B.n807 B.n33 163.367
R793 B.n803 B.n33 163.367
R794 B.n803 B.n38 163.367
R795 B.n799 B.n38 163.367
R796 B.n799 B.n40 163.367
R797 B.n795 B.n40 163.367
R798 B.n795 B.n44 163.367
R799 B.n791 B.n44 163.367
R800 B.n791 B.n46 163.367
R801 B.n787 B.n46 163.367
R802 B.n787 B.n52 163.367
R803 B.n783 B.n52 163.367
R804 B.n783 B.n54 163.367
R805 B.n779 B.n54 163.367
R806 B.n779 B.n59 163.367
R807 B.n775 B.n59 163.367
R808 B.n116 B.n115 80.4853
R809 B.n114 B.n113 80.4853
R810 B.n401 B.n400 80.4853
R811 B.n407 B.n406 80.4853
R812 B.n631 B.n375 74.0646
R813 B.n774 B.n773 74.0646
R814 B.n63 B.n61 71.676
R815 B.n119 B.n64 71.676
R816 B.n123 B.n65 71.676
R817 B.n127 B.n66 71.676
R818 B.n131 B.n67 71.676
R819 B.n135 B.n68 71.676
R820 B.n139 B.n69 71.676
R821 B.n143 B.n70 71.676
R822 B.n147 B.n71 71.676
R823 B.n151 B.n72 71.676
R824 B.n155 B.n73 71.676
R825 B.n159 B.n74 71.676
R826 B.n163 B.n75 71.676
R827 B.n167 B.n76 71.676
R828 B.n171 B.n77 71.676
R829 B.n175 B.n78 71.676
R830 B.n179 B.n79 71.676
R831 B.n183 B.n80 71.676
R832 B.n187 B.n81 71.676
R833 B.n191 B.n82 71.676
R834 B.n195 B.n83 71.676
R835 B.n199 B.n84 71.676
R836 B.n203 B.n85 71.676
R837 B.n208 B.n86 71.676
R838 B.n212 B.n87 71.676
R839 B.n216 B.n88 71.676
R840 B.n220 B.n89 71.676
R841 B.n224 B.n90 71.676
R842 B.n229 B.n91 71.676
R843 B.n233 B.n92 71.676
R844 B.n237 B.n93 71.676
R845 B.n241 B.n94 71.676
R846 B.n245 B.n95 71.676
R847 B.n249 B.n96 71.676
R848 B.n253 B.n97 71.676
R849 B.n257 B.n98 71.676
R850 B.n261 B.n99 71.676
R851 B.n265 B.n100 71.676
R852 B.n269 B.n101 71.676
R853 B.n273 B.n102 71.676
R854 B.n277 B.n103 71.676
R855 B.n281 B.n104 71.676
R856 B.n285 B.n105 71.676
R857 B.n289 B.n106 71.676
R858 B.n293 B.n107 71.676
R859 B.n297 B.n108 71.676
R860 B.n301 B.n109 71.676
R861 B.n305 B.n110 71.676
R862 B.n309 B.n111 71.676
R863 B.n772 B.n112 71.676
R864 B.n772 B.n771 71.676
R865 B.n311 B.n111 71.676
R866 B.n308 B.n110 71.676
R867 B.n304 B.n109 71.676
R868 B.n300 B.n108 71.676
R869 B.n296 B.n107 71.676
R870 B.n292 B.n106 71.676
R871 B.n288 B.n105 71.676
R872 B.n284 B.n104 71.676
R873 B.n280 B.n103 71.676
R874 B.n276 B.n102 71.676
R875 B.n272 B.n101 71.676
R876 B.n268 B.n100 71.676
R877 B.n264 B.n99 71.676
R878 B.n260 B.n98 71.676
R879 B.n256 B.n97 71.676
R880 B.n252 B.n96 71.676
R881 B.n248 B.n95 71.676
R882 B.n244 B.n94 71.676
R883 B.n240 B.n93 71.676
R884 B.n236 B.n92 71.676
R885 B.n232 B.n91 71.676
R886 B.n228 B.n90 71.676
R887 B.n223 B.n89 71.676
R888 B.n219 B.n88 71.676
R889 B.n215 B.n87 71.676
R890 B.n211 B.n86 71.676
R891 B.n207 B.n85 71.676
R892 B.n202 B.n84 71.676
R893 B.n198 B.n83 71.676
R894 B.n194 B.n82 71.676
R895 B.n190 B.n81 71.676
R896 B.n186 B.n80 71.676
R897 B.n182 B.n79 71.676
R898 B.n178 B.n78 71.676
R899 B.n174 B.n77 71.676
R900 B.n170 B.n76 71.676
R901 B.n166 B.n75 71.676
R902 B.n162 B.n74 71.676
R903 B.n158 B.n73 71.676
R904 B.n154 B.n72 71.676
R905 B.n150 B.n71 71.676
R906 B.n146 B.n70 71.676
R907 B.n142 B.n69 71.676
R908 B.n138 B.n68 71.676
R909 B.n134 B.n67 71.676
R910 B.n130 B.n66 71.676
R911 B.n126 B.n65 71.676
R912 B.n122 B.n64 71.676
R913 B.n118 B.n63 71.676
R914 B.n431 B.n374 71.676
R915 B.n437 B.n436 71.676
R916 B.n440 B.n439 71.676
R917 B.n445 B.n444 71.676
R918 B.n448 B.n447 71.676
R919 B.n453 B.n452 71.676
R920 B.n456 B.n455 71.676
R921 B.n461 B.n460 71.676
R922 B.n464 B.n463 71.676
R923 B.n469 B.n468 71.676
R924 B.n472 B.n471 71.676
R925 B.n477 B.n476 71.676
R926 B.n480 B.n479 71.676
R927 B.n485 B.n484 71.676
R928 B.n488 B.n487 71.676
R929 B.n493 B.n492 71.676
R930 B.n496 B.n495 71.676
R931 B.n501 B.n500 71.676
R932 B.n504 B.n503 71.676
R933 B.n509 B.n508 71.676
R934 B.n512 B.n511 71.676
R935 B.n517 B.n516 71.676
R936 B.n520 B.n519 71.676
R937 B.n525 B.n524 71.676
R938 B.n528 B.n527 71.676
R939 B.n533 B.n532 71.676
R940 B.n536 B.n535 71.676
R941 B.n542 B.n541 71.676
R942 B.n545 B.n544 71.676
R943 B.n550 B.n549 71.676
R944 B.n553 B.n552 71.676
R945 B.n558 B.n557 71.676
R946 B.n561 B.n560 71.676
R947 B.n566 B.n565 71.676
R948 B.n569 B.n568 71.676
R949 B.n574 B.n573 71.676
R950 B.n577 B.n576 71.676
R951 B.n582 B.n581 71.676
R952 B.n585 B.n584 71.676
R953 B.n590 B.n589 71.676
R954 B.n593 B.n592 71.676
R955 B.n598 B.n597 71.676
R956 B.n601 B.n600 71.676
R957 B.n606 B.n605 71.676
R958 B.n609 B.n608 71.676
R959 B.n614 B.n613 71.676
R960 B.n617 B.n616 71.676
R961 B.n622 B.n621 71.676
R962 B.n625 B.n624 71.676
R963 B.n432 B.n431 71.676
R964 B.n438 B.n437 71.676
R965 B.n439 B.n428 71.676
R966 B.n446 B.n445 71.676
R967 B.n447 B.n426 71.676
R968 B.n454 B.n453 71.676
R969 B.n455 B.n424 71.676
R970 B.n462 B.n461 71.676
R971 B.n463 B.n422 71.676
R972 B.n470 B.n469 71.676
R973 B.n471 B.n420 71.676
R974 B.n478 B.n477 71.676
R975 B.n479 B.n418 71.676
R976 B.n486 B.n485 71.676
R977 B.n487 B.n416 71.676
R978 B.n494 B.n493 71.676
R979 B.n495 B.n414 71.676
R980 B.n502 B.n501 71.676
R981 B.n503 B.n412 71.676
R982 B.n510 B.n509 71.676
R983 B.n511 B.n410 71.676
R984 B.n518 B.n517 71.676
R985 B.n519 B.n405 71.676
R986 B.n526 B.n525 71.676
R987 B.n527 B.n403 71.676
R988 B.n534 B.n533 71.676
R989 B.n535 B.n399 71.676
R990 B.n543 B.n542 71.676
R991 B.n544 B.n397 71.676
R992 B.n551 B.n550 71.676
R993 B.n552 B.n395 71.676
R994 B.n559 B.n558 71.676
R995 B.n560 B.n393 71.676
R996 B.n567 B.n566 71.676
R997 B.n568 B.n391 71.676
R998 B.n575 B.n574 71.676
R999 B.n576 B.n389 71.676
R1000 B.n583 B.n582 71.676
R1001 B.n584 B.n387 71.676
R1002 B.n591 B.n590 71.676
R1003 B.n592 B.n385 71.676
R1004 B.n599 B.n598 71.676
R1005 B.n600 B.n383 71.676
R1006 B.n607 B.n606 71.676
R1007 B.n608 B.n381 71.676
R1008 B.n615 B.n614 71.676
R1009 B.n616 B.n379 71.676
R1010 B.n623 B.n622 71.676
R1011 B.n626 B.n625 71.676
R1012 B.n841 B.n840 71.676
R1013 B.n841 B.n2 71.676
R1014 B.n205 B.n116 59.5399
R1015 B.n226 B.n114 59.5399
R1016 B.n539 B.n401 59.5399
R1017 B.n408 B.n407 59.5399
R1018 B.n631 B.n371 40.2914
R1019 B.n637 B.n371 40.2914
R1020 B.n637 B.n367 40.2914
R1021 B.n643 B.n367 40.2914
R1022 B.n643 B.n363 40.2914
R1023 B.n649 B.n363 40.2914
R1024 B.n649 B.n359 40.2914
R1025 B.n656 B.n359 40.2914
R1026 B.n656 B.n655 40.2914
R1027 B.n662 B.n352 40.2914
R1028 B.n668 B.n352 40.2914
R1029 B.n668 B.n348 40.2914
R1030 B.n674 B.n348 40.2914
R1031 B.n674 B.n344 40.2914
R1032 B.n680 B.n344 40.2914
R1033 B.n680 B.n340 40.2914
R1034 B.n686 B.n340 40.2914
R1035 B.n686 B.n336 40.2914
R1036 B.n692 B.n336 40.2914
R1037 B.n692 B.n332 40.2914
R1038 B.n698 B.n332 40.2914
R1039 B.n698 B.n328 40.2914
R1040 B.n704 B.n328 40.2914
R1041 B.n710 B.n324 40.2914
R1042 B.n710 B.n320 40.2914
R1043 B.n717 B.n320 40.2914
R1044 B.n717 B.n316 40.2914
R1045 B.n723 B.n316 40.2914
R1046 B.n723 B.n4 40.2914
R1047 B.n839 B.n4 40.2914
R1048 B.n839 B.n838 40.2914
R1049 B.n838 B.n837 40.2914
R1050 B.n837 B.n8 40.2914
R1051 B.n12 B.n8 40.2914
R1052 B.n830 B.n12 40.2914
R1053 B.n830 B.n829 40.2914
R1054 B.n829 B.n828 40.2914
R1055 B.n828 B.n16 40.2914
R1056 B.n822 B.n821 40.2914
R1057 B.n821 B.n820 40.2914
R1058 B.n820 B.n23 40.2914
R1059 B.n814 B.n23 40.2914
R1060 B.n814 B.n813 40.2914
R1061 B.n813 B.n812 40.2914
R1062 B.n812 B.n30 40.2914
R1063 B.n806 B.n30 40.2914
R1064 B.n806 B.n805 40.2914
R1065 B.n805 B.n804 40.2914
R1066 B.n804 B.n37 40.2914
R1067 B.n798 B.n37 40.2914
R1068 B.n798 B.n797 40.2914
R1069 B.n797 B.n796 40.2914
R1070 B.n790 B.n47 40.2914
R1071 B.n790 B.n789 40.2914
R1072 B.n789 B.n788 40.2914
R1073 B.n788 B.n51 40.2914
R1074 B.n782 B.n51 40.2914
R1075 B.n782 B.n781 40.2914
R1076 B.n781 B.n780 40.2914
R1077 B.n780 B.n58 40.2914
R1078 B.n774 B.n58 40.2914
R1079 B.n633 B.n373 34.8103
R1080 B.n629 B.n628 34.8103
R1081 B.n770 B.n769 34.8103
R1082 B.n776 B.n60 34.8103
R1083 B.n704 B.t0 31.9962
R1084 B.n822 B.t1 31.9962
R1085 B.n662 B.t3 24.886
R1086 B.n796 B.t7 24.886
R1087 B B.n842 18.0485
R1088 B.n655 B.t3 15.4058
R1089 B.n47 B.t7 15.4058
R1090 B.n634 B.n633 10.6151
R1091 B.n635 B.n634 10.6151
R1092 B.n635 B.n365 10.6151
R1093 B.n645 B.n365 10.6151
R1094 B.n646 B.n645 10.6151
R1095 B.n647 B.n646 10.6151
R1096 B.n647 B.n357 10.6151
R1097 B.n658 B.n357 10.6151
R1098 B.n659 B.n658 10.6151
R1099 B.n660 B.n659 10.6151
R1100 B.n660 B.n350 10.6151
R1101 B.n670 B.n350 10.6151
R1102 B.n671 B.n670 10.6151
R1103 B.n672 B.n671 10.6151
R1104 B.n672 B.n342 10.6151
R1105 B.n682 B.n342 10.6151
R1106 B.n683 B.n682 10.6151
R1107 B.n684 B.n683 10.6151
R1108 B.n684 B.n334 10.6151
R1109 B.n694 B.n334 10.6151
R1110 B.n695 B.n694 10.6151
R1111 B.n696 B.n695 10.6151
R1112 B.n696 B.n326 10.6151
R1113 B.n706 B.n326 10.6151
R1114 B.n707 B.n706 10.6151
R1115 B.n708 B.n707 10.6151
R1116 B.n708 B.n318 10.6151
R1117 B.n719 B.n318 10.6151
R1118 B.n720 B.n719 10.6151
R1119 B.n721 B.n720 10.6151
R1120 B.n721 B.n0 10.6151
R1121 B.n433 B.n373 10.6151
R1122 B.n434 B.n433 10.6151
R1123 B.n435 B.n434 10.6151
R1124 B.n435 B.n429 10.6151
R1125 B.n441 B.n429 10.6151
R1126 B.n442 B.n441 10.6151
R1127 B.n443 B.n442 10.6151
R1128 B.n443 B.n427 10.6151
R1129 B.n449 B.n427 10.6151
R1130 B.n450 B.n449 10.6151
R1131 B.n451 B.n450 10.6151
R1132 B.n451 B.n425 10.6151
R1133 B.n457 B.n425 10.6151
R1134 B.n458 B.n457 10.6151
R1135 B.n459 B.n458 10.6151
R1136 B.n459 B.n423 10.6151
R1137 B.n465 B.n423 10.6151
R1138 B.n466 B.n465 10.6151
R1139 B.n467 B.n466 10.6151
R1140 B.n467 B.n421 10.6151
R1141 B.n473 B.n421 10.6151
R1142 B.n474 B.n473 10.6151
R1143 B.n475 B.n474 10.6151
R1144 B.n475 B.n419 10.6151
R1145 B.n481 B.n419 10.6151
R1146 B.n482 B.n481 10.6151
R1147 B.n483 B.n482 10.6151
R1148 B.n483 B.n417 10.6151
R1149 B.n489 B.n417 10.6151
R1150 B.n490 B.n489 10.6151
R1151 B.n491 B.n490 10.6151
R1152 B.n491 B.n415 10.6151
R1153 B.n497 B.n415 10.6151
R1154 B.n498 B.n497 10.6151
R1155 B.n499 B.n498 10.6151
R1156 B.n499 B.n413 10.6151
R1157 B.n505 B.n413 10.6151
R1158 B.n506 B.n505 10.6151
R1159 B.n507 B.n506 10.6151
R1160 B.n507 B.n411 10.6151
R1161 B.n513 B.n411 10.6151
R1162 B.n514 B.n513 10.6151
R1163 B.n515 B.n514 10.6151
R1164 B.n515 B.n409 10.6151