* NGSPICE file created from diff_pair_sample_1290.ext - technology: sky130A

.subckt diff_pair_sample_1290 VTAIL VN VP B VDD2 VDD1
X0 VTAIL.t15 VN.t0 VDD2.t7 B.t7 sky130_fd_pr__nfet_01v8 ad=7.2969 pd=38.2 as=3.08715 ps=19.04 w=18.71 l=3.13
X1 B.t21 B.t19 B.t20 B.t16 sky130_fd_pr__nfet_01v8 ad=7.2969 pd=38.2 as=0 ps=0 w=18.71 l=3.13
X2 VTAIL.t14 VN.t1 VDD2.t6 B.t0 sky130_fd_pr__nfet_01v8 ad=3.08715 pd=19.04 as=3.08715 ps=19.04 w=18.71 l=3.13
X3 VDD1.t7 VP.t0 VTAIL.t2 B.t2 sky130_fd_pr__nfet_01v8 ad=3.08715 pd=19.04 as=7.2969 ps=38.2 w=18.71 l=3.13
X4 VTAIL.t0 VP.t1 VDD1.t6 B.t0 sky130_fd_pr__nfet_01v8 ad=3.08715 pd=19.04 as=3.08715 ps=19.04 w=18.71 l=3.13
X5 B.t18 B.t15 B.t17 B.t16 sky130_fd_pr__nfet_01v8 ad=7.2969 pd=38.2 as=0 ps=0 w=18.71 l=3.13
X6 VTAIL.t1 VP.t2 VDD1.t5 B.t1 sky130_fd_pr__nfet_01v8 ad=7.2969 pd=38.2 as=3.08715 ps=19.04 w=18.71 l=3.13
X7 VDD2.t5 VN.t2 VTAIL.t13 B.t6 sky130_fd_pr__nfet_01v8 ad=3.08715 pd=19.04 as=7.2969 ps=38.2 w=18.71 l=3.13
X8 VTAIL.t12 VN.t3 VDD2.t4 B.t3 sky130_fd_pr__nfet_01v8 ad=3.08715 pd=19.04 as=3.08715 ps=19.04 w=18.71 l=3.13
X9 VDD1.t4 VP.t3 VTAIL.t6 B.t6 sky130_fd_pr__nfet_01v8 ad=3.08715 pd=19.04 as=7.2969 ps=38.2 w=18.71 l=3.13
X10 VDD2.t1 VN.t4 VTAIL.t11 B.t4 sky130_fd_pr__nfet_01v8 ad=3.08715 pd=19.04 as=3.08715 ps=19.04 w=18.71 l=3.13
X11 VDD2.t0 VN.t5 VTAIL.t10 B.t2 sky130_fd_pr__nfet_01v8 ad=3.08715 pd=19.04 as=7.2969 ps=38.2 w=18.71 l=3.13
X12 VTAIL.t9 VN.t6 VDD2.t3 B.t1 sky130_fd_pr__nfet_01v8 ad=7.2969 pd=38.2 as=3.08715 ps=19.04 w=18.71 l=3.13
X13 B.t14 B.t12 B.t13 B.t9 sky130_fd_pr__nfet_01v8 ad=7.2969 pd=38.2 as=0 ps=0 w=18.71 l=3.13
X14 VDD1.t3 VP.t4 VTAIL.t4 B.t4 sky130_fd_pr__nfet_01v8 ad=3.08715 pd=19.04 as=3.08715 ps=19.04 w=18.71 l=3.13
X15 VDD2.t2 VN.t7 VTAIL.t8 B.t5 sky130_fd_pr__nfet_01v8 ad=3.08715 pd=19.04 as=3.08715 ps=19.04 w=18.71 l=3.13
X16 B.t11 B.t8 B.t10 B.t9 sky130_fd_pr__nfet_01v8 ad=7.2969 pd=38.2 as=0 ps=0 w=18.71 l=3.13
X17 VTAIL.t7 VP.t5 VDD1.t2 B.t7 sky130_fd_pr__nfet_01v8 ad=7.2969 pd=38.2 as=3.08715 ps=19.04 w=18.71 l=3.13
X18 VTAIL.t3 VP.t6 VDD1.t1 B.t3 sky130_fd_pr__nfet_01v8 ad=3.08715 pd=19.04 as=3.08715 ps=19.04 w=18.71 l=3.13
X19 VDD1.t0 VP.t7 VTAIL.t5 B.t5 sky130_fd_pr__nfet_01v8 ad=3.08715 pd=19.04 as=3.08715 ps=19.04 w=18.71 l=3.13
R0 VN.n39 VN.t5 177.48
R1 VN.n8 VN.t6 177.48
R2 VN.n60 VN.n59 161.3
R3 VN.n58 VN.n32 161.3
R4 VN.n57 VN.n56 161.3
R5 VN.n55 VN.n33 161.3
R6 VN.n54 VN.n53 161.3
R7 VN.n52 VN.n34 161.3
R8 VN.n51 VN.n50 161.3
R9 VN.n49 VN.n48 161.3
R10 VN.n47 VN.n36 161.3
R11 VN.n46 VN.n45 161.3
R12 VN.n44 VN.n37 161.3
R13 VN.n43 VN.n42 161.3
R14 VN.n41 VN.n38 161.3
R15 VN.n29 VN.n28 161.3
R16 VN.n27 VN.n1 161.3
R17 VN.n26 VN.n25 161.3
R18 VN.n24 VN.n2 161.3
R19 VN.n23 VN.n22 161.3
R20 VN.n21 VN.n3 161.3
R21 VN.n20 VN.n19 161.3
R22 VN.n18 VN.n17 161.3
R23 VN.n16 VN.n5 161.3
R24 VN.n15 VN.n14 161.3
R25 VN.n13 VN.n6 161.3
R26 VN.n12 VN.n11 161.3
R27 VN.n10 VN.n7 161.3
R28 VN.n9 VN.t4 144.061
R29 VN.n4 VN.t3 144.061
R30 VN.n0 VN.t2 144.061
R31 VN.n40 VN.t1 144.061
R32 VN.n35 VN.t7 144.061
R33 VN.n31 VN.t0 144.061
R34 VN.n30 VN.n0 68.5364
R35 VN.n61 VN.n31 68.5364
R36 VN VN.n61 58.8011
R37 VN.n15 VN.n6 56.5193
R38 VN.n26 VN.n2 56.5193
R39 VN.n46 VN.n37 56.5193
R40 VN.n57 VN.n33 56.5193
R41 VN.n9 VN.n8 50.4514
R42 VN.n40 VN.n39 50.4514
R43 VN.n11 VN.n10 24.4675
R44 VN.n11 VN.n6 24.4675
R45 VN.n16 VN.n15 24.4675
R46 VN.n17 VN.n16 24.4675
R47 VN.n21 VN.n20 24.4675
R48 VN.n22 VN.n21 24.4675
R49 VN.n22 VN.n2 24.4675
R50 VN.n27 VN.n26 24.4675
R51 VN.n28 VN.n27 24.4675
R52 VN.n42 VN.n37 24.4675
R53 VN.n42 VN.n41 24.4675
R54 VN.n53 VN.n33 24.4675
R55 VN.n53 VN.n52 24.4675
R56 VN.n52 VN.n51 24.4675
R57 VN.n48 VN.n47 24.4675
R58 VN.n47 VN.n46 24.4675
R59 VN.n59 VN.n58 24.4675
R60 VN.n58 VN.n57 24.4675
R61 VN.n10 VN.n9 23.4888
R62 VN.n17 VN.n4 23.4888
R63 VN.n41 VN.n40 23.4888
R64 VN.n48 VN.n35 23.4888
R65 VN.n28 VN.n0 21.5315
R66 VN.n59 VN.n31 21.5315
R67 VN.n39 VN.n38 3.84099
R68 VN.n8 VN.n7 3.84099
R69 VN.n20 VN.n4 0.97918
R70 VN.n51 VN.n35 0.97918
R71 VN.n61 VN.n60 0.354971
R72 VN.n30 VN.n29 0.354971
R73 VN VN.n30 0.26696
R74 VN.n60 VN.n32 0.189894
R75 VN.n56 VN.n32 0.189894
R76 VN.n56 VN.n55 0.189894
R77 VN.n55 VN.n54 0.189894
R78 VN.n54 VN.n34 0.189894
R79 VN.n50 VN.n34 0.189894
R80 VN.n50 VN.n49 0.189894
R81 VN.n49 VN.n36 0.189894
R82 VN.n45 VN.n36 0.189894
R83 VN.n45 VN.n44 0.189894
R84 VN.n44 VN.n43 0.189894
R85 VN.n43 VN.n38 0.189894
R86 VN.n12 VN.n7 0.189894
R87 VN.n13 VN.n12 0.189894
R88 VN.n14 VN.n13 0.189894
R89 VN.n14 VN.n5 0.189894
R90 VN.n18 VN.n5 0.189894
R91 VN.n19 VN.n18 0.189894
R92 VN.n19 VN.n3 0.189894
R93 VN.n23 VN.n3 0.189894
R94 VN.n24 VN.n23 0.189894
R95 VN.n25 VN.n24 0.189894
R96 VN.n25 VN.n1 0.189894
R97 VN.n29 VN.n1 0.189894
R98 VDD2.n2 VDD2.n1 63.7374
R99 VDD2.n2 VDD2.n0 63.7374
R100 VDD2 VDD2.n5 63.7344
R101 VDD2.n4 VDD2.n3 62.3024
R102 VDD2.n4 VDD2.n2 53.267
R103 VDD2 VDD2.n4 1.55007
R104 VDD2.n5 VDD2.t6 1.05876
R105 VDD2.n5 VDD2.t0 1.05876
R106 VDD2.n3 VDD2.t7 1.05876
R107 VDD2.n3 VDD2.t2 1.05876
R108 VDD2.n1 VDD2.t4 1.05876
R109 VDD2.n1 VDD2.t5 1.05876
R110 VDD2.n0 VDD2.t3 1.05876
R111 VDD2.n0 VDD2.t1 1.05876
R112 VTAIL.n838 VTAIL.n837 289.615
R113 VTAIL.n104 VTAIL.n103 289.615
R114 VTAIL.n208 VTAIL.n207 289.615
R115 VTAIL.n314 VTAIL.n313 289.615
R116 VTAIL.n734 VTAIL.n733 289.615
R117 VTAIL.n628 VTAIL.n627 289.615
R118 VTAIL.n524 VTAIL.n523 289.615
R119 VTAIL.n418 VTAIL.n417 289.615
R120 VTAIL.n771 VTAIL.n770 185
R121 VTAIL.n773 VTAIL.n772 185
R122 VTAIL.n766 VTAIL.n765 185
R123 VTAIL.n779 VTAIL.n778 185
R124 VTAIL.n781 VTAIL.n780 185
R125 VTAIL.n762 VTAIL.n761 185
R126 VTAIL.n788 VTAIL.n787 185
R127 VTAIL.n789 VTAIL.n760 185
R128 VTAIL.n791 VTAIL.n790 185
R129 VTAIL.n758 VTAIL.n757 185
R130 VTAIL.n797 VTAIL.n796 185
R131 VTAIL.n799 VTAIL.n798 185
R132 VTAIL.n754 VTAIL.n753 185
R133 VTAIL.n805 VTAIL.n804 185
R134 VTAIL.n807 VTAIL.n806 185
R135 VTAIL.n750 VTAIL.n749 185
R136 VTAIL.n813 VTAIL.n812 185
R137 VTAIL.n815 VTAIL.n814 185
R138 VTAIL.n746 VTAIL.n745 185
R139 VTAIL.n821 VTAIL.n820 185
R140 VTAIL.n823 VTAIL.n822 185
R141 VTAIL.n742 VTAIL.n741 185
R142 VTAIL.n829 VTAIL.n828 185
R143 VTAIL.n831 VTAIL.n830 185
R144 VTAIL.n738 VTAIL.n737 185
R145 VTAIL.n837 VTAIL.n836 185
R146 VTAIL.n37 VTAIL.n36 185
R147 VTAIL.n39 VTAIL.n38 185
R148 VTAIL.n32 VTAIL.n31 185
R149 VTAIL.n45 VTAIL.n44 185
R150 VTAIL.n47 VTAIL.n46 185
R151 VTAIL.n28 VTAIL.n27 185
R152 VTAIL.n54 VTAIL.n53 185
R153 VTAIL.n55 VTAIL.n26 185
R154 VTAIL.n57 VTAIL.n56 185
R155 VTAIL.n24 VTAIL.n23 185
R156 VTAIL.n63 VTAIL.n62 185
R157 VTAIL.n65 VTAIL.n64 185
R158 VTAIL.n20 VTAIL.n19 185
R159 VTAIL.n71 VTAIL.n70 185
R160 VTAIL.n73 VTAIL.n72 185
R161 VTAIL.n16 VTAIL.n15 185
R162 VTAIL.n79 VTAIL.n78 185
R163 VTAIL.n81 VTAIL.n80 185
R164 VTAIL.n12 VTAIL.n11 185
R165 VTAIL.n87 VTAIL.n86 185
R166 VTAIL.n89 VTAIL.n88 185
R167 VTAIL.n8 VTAIL.n7 185
R168 VTAIL.n95 VTAIL.n94 185
R169 VTAIL.n97 VTAIL.n96 185
R170 VTAIL.n4 VTAIL.n3 185
R171 VTAIL.n103 VTAIL.n102 185
R172 VTAIL.n141 VTAIL.n140 185
R173 VTAIL.n143 VTAIL.n142 185
R174 VTAIL.n136 VTAIL.n135 185
R175 VTAIL.n149 VTAIL.n148 185
R176 VTAIL.n151 VTAIL.n150 185
R177 VTAIL.n132 VTAIL.n131 185
R178 VTAIL.n158 VTAIL.n157 185
R179 VTAIL.n159 VTAIL.n130 185
R180 VTAIL.n161 VTAIL.n160 185
R181 VTAIL.n128 VTAIL.n127 185
R182 VTAIL.n167 VTAIL.n166 185
R183 VTAIL.n169 VTAIL.n168 185
R184 VTAIL.n124 VTAIL.n123 185
R185 VTAIL.n175 VTAIL.n174 185
R186 VTAIL.n177 VTAIL.n176 185
R187 VTAIL.n120 VTAIL.n119 185
R188 VTAIL.n183 VTAIL.n182 185
R189 VTAIL.n185 VTAIL.n184 185
R190 VTAIL.n116 VTAIL.n115 185
R191 VTAIL.n191 VTAIL.n190 185
R192 VTAIL.n193 VTAIL.n192 185
R193 VTAIL.n112 VTAIL.n111 185
R194 VTAIL.n199 VTAIL.n198 185
R195 VTAIL.n201 VTAIL.n200 185
R196 VTAIL.n108 VTAIL.n107 185
R197 VTAIL.n207 VTAIL.n206 185
R198 VTAIL.n247 VTAIL.n246 185
R199 VTAIL.n249 VTAIL.n248 185
R200 VTAIL.n242 VTAIL.n241 185
R201 VTAIL.n255 VTAIL.n254 185
R202 VTAIL.n257 VTAIL.n256 185
R203 VTAIL.n238 VTAIL.n237 185
R204 VTAIL.n264 VTAIL.n263 185
R205 VTAIL.n265 VTAIL.n236 185
R206 VTAIL.n267 VTAIL.n266 185
R207 VTAIL.n234 VTAIL.n233 185
R208 VTAIL.n273 VTAIL.n272 185
R209 VTAIL.n275 VTAIL.n274 185
R210 VTAIL.n230 VTAIL.n229 185
R211 VTAIL.n281 VTAIL.n280 185
R212 VTAIL.n283 VTAIL.n282 185
R213 VTAIL.n226 VTAIL.n225 185
R214 VTAIL.n289 VTAIL.n288 185
R215 VTAIL.n291 VTAIL.n290 185
R216 VTAIL.n222 VTAIL.n221 185
R217 VTAIL.n297 VTAIL.n296 185
R218 VTAIL.n299 VTAIL.n298 185
R219 VTAIL.n218 VTAIL.n217 185
R220 VTAIL.n305 VTAIL.n304 185
R221 VTAIL.n307 VTAIL.n306 185
R222 VTAIL.n214 VTAIL.n213 185
R223 VTAIL.n313 VTAIL.n312 185
R224 VTAIL.n733 VTAIL.n732 185
R225 VTAIL.n634 VTAIL.n633 185
R226 VTAIL.n727 VTAIL.n726 185
R227 VTAIL.n725 VTAIL.n724 185
R228 VTAIL.n638 VTAIL.n637 185
R229 VTAIL.n719 VTAIL.n718 185
R230 VTAIL.n717 VTAIL.n716 185
R231 VTAIL.n642 VTAIL.n641 185
R232 VTAIL.n711 VTAIL.n710 185
R233 VTAIL.n709 VTAIL.n708 185
R234 VTAIL.n646 VTAIL.n645 185
R235 VTAIL.n703 VTAIL.n702 185
R236 VTAIL.n701 VTAIL.n700 185
R237 VTAIL.n650 VTAIL.n649 185
R238 VTAIL.n695 VTAIL.n694 185
R239 VTAIL.n693 VTAIL.n692 185
R240 VTAIL.n654 VTAIL.n653 185
R241 VTAIL.n658 VTAIL.n656 185
R242 VTAIL.n687 VTAIL.n686 185
R243 VTAIL.n685 VTAIL.n684 185
R244 VTAIL.n660 VTAIL.n659 185
R245 VTAIL.n679 VTAIL.n678 185
R246 VTAIL.n677 VTAIL.n676 185
R247 VTAIL.n664 VTAIL.n663 185
R248 VTAIL.n671 VTAIL.n670 185
R249 VTAIL.n669 VTAIL.n668 185
R250 VTAIL.n627 VTAIL.n626 185
R251 VTAIL.n528 VTAIL.n527 185
R252 VTAIL.n621 VTAIL.n620 185
R253 VTAIL.n619 VTAIL.n618 185
R254 VTAIL.n532 VTAIL.n531 185
R255 VTAIL.n613 VTAIL.n612 185
R256 VTAIL.n611 VTAIL.n610 185
R257 VTAIL.n536 VTAIL.n535 185
R258 VTAIL.n605 VTAIL.n604 185
R259 VTAIL.n603 VTAIL.n602 185
R260 VTAIL.n540 VTAIL.n539 185
R261 VTAIL.n597 VTAIL.n596 185
R262 VTAIL.n595 VTAIL.n594 185
R263 VTAIL.n544 VTAIL.n543 185
R264 VTAIL.n589 VTAIL.n588 185
R265 VTAIL.n587 VTAIL.n586 185
R266 VTAIL.n548 VTAIL.n547 185
R267 VTAIL.n552 VTAIL.n550 185
R268 VTAIL.n581 VTAIL.n580 185
R269 VTAIL.n579 VTAIL.n578 185
R270 VTAIL.n554 VTAIL.n553 185
R271 VTAIL.n573 VTAIL.n572 185
R272 VTAIL.n571 VTAIL.n570 185
R273 VTAIL.n558 VTAIL.n557 185
R274 VTAIL.n565 VTAIL.n564 185
R275 VTAIL.n563 VTAIL.n562 185
R276 VTAIL.n523 VTAIL.n522 185
R277 VTAIL.n424 VTAIL.n423 185
R278 VTAIL.n517 VTAIL.n516 185
R279 VTAIL.n515 VTAIL.n514 185
R280 VTAIL.n428 VTAIL.n427 185
R281 VTAIL.n509 VTAIL.n508 185
R282 VTAIL.n507 VTAIL.n506 185
R283 VTAIL.n432 VTAIL.n431 185
R284 VTAIL.n501 VTAIL.n500 185
R285 VTAIL.n499 VTAIL.n498 185
R286 VTAIL.n436 VTAIL.n435 185
R287 VTAIL.n493 VTAIL.n492 185
R288 VTAIL.n491 VTAIL.n490 185
R289 VTAIL.n440 VTAIL.n439 185
R290 VTAIL.n485 VTAIL.n484 185
R291 VTAIL.n483 VTAIL.n482 185
R292 VTAIL.n444 VTAIL.n443 185
R293 VTAIL.n448 VTAIL.n446 185
R294 VTAIL.n477 VTAIL.n476 185
R295 VTAIL.n475 VTAIL.n474 185
R296 VTAIL.n450 VTAIL.n449 185
R297 VTAIL.n469 VTAIL.n468 185
R298 VTAIL.n467 VTAIL.n466 185
R299 VTAIL.n454 VTAIL.n453 185
R300 VTAIL.n461 VTAIL.n460 185
R301 VTAIL.n459 VTAIL.n458 185
R302 VTAIL.n417 VTAIL.n416 185
R303 VTAIL.n318 VTAIL.n317 185
R304 VTAIL.n411 VTAIL.n410 185
R305 VTAIL.n409 VTAIL.n408 185
R306 VTAIL.n322 VTAIL.n321 185
R307 VTAIL.n403 VTAIL.n402 185
R308 VTAIL.n401 VTAIL.n400 185
R309 VTAIL.n326 VTAIL.n325 185
R310 VTAIL.n395 VTAIL.n394 185
R311 VTAIL.n393 VTAIL.n392 185
R312 VTAIL.n330 VTAIL.n329 185
R313 VTAIL.n387 VTAIL.n386 185
R314 VTAIL.n385 VTAIL.n384 185
R315 VTAIL.n334 VTAIL.n333 185
R316 VTAIL.n379 VTAIL.n378 185
R317 VTAIL.n377 VTAIL.n376 185
R318 VTAIL.n338 VTAIL.n337 185
R319 VTAIL.n342 VTAIL.n340 185
R320 VTAIL.n371 VTAIL.n370 185
R321 VTAIL.n369 VTAIL.n368 185
R322 VTAIL.n344 VTAIL.n343 185
R323 VTAIL.n363 VTAIL.n362 185
R324 VTAIL.n361 VTAIL.n360 185
R325 VTAIL.n348 VTAIL.n347 185
R326 VTAIL.n355 VTAIL.n354 185
R327 VTAIL.n353 VTAIL.n352 185
R328 VTAIL.n769 VTAIL.t13 149.524
R329 VTAIL.n35 VTAIL.t9 149.524
R330 VTAIL.n139 VTAIL.t2 149.524
R331 VTAIL.n245 VTAIL.t7 149.524
R332 VTAIL.n667 VTAIL.t6 149.524
R333 VTAIL.n561 VTAIL.t1 149.524
R334 VTAIL.n457 VTAIL.t10 149.524
R335 VTAIL.n351 VTAIL.t15 149.524
R336 VTAIL.n772 VTAIL.n771 104.615
R337 VTAIL.n772 VTAIL.n765 104.615
R338 VTAIL.n779 VTAIL.n765 104.615
R339 VTAIL.n780 VTAIL.n779 104.615
R340 VTAIL.n780 VTAIL.n761 104.615
R341 VTAIL.n788 VTAIL.n761 104.615
R342 VTAIL.n789 VTAIL.n788 104.615
R343 VTAIL.n790 VTAIL.n789 104.615
R344 VTAIL.n790 VTAIL.n757 104.615
R345 VTAIL.n797 VTAIL.n757 104.615
R346 VTAIL.n798 VTAIL.n797 104.615
R347 VTAIL.n798 VTAIL.n753 104.615
R348 VTAIL.n805 VTAIL.n753 104.615
R349 VTAIL.n806 VTAIL.n805 104.615
R350 VTAIL.n806 VTAIL.n749 104.615
R351 VTAIL.n813 VTAIL.n749 104.615
R352 VTAIL.n814 VTAIL.n813 104.615
R353 VTAIL.n814 VTAIL.n745 104.615
R354 VTAIL.n821 VTAIL.n745 104.615
R355 VTAIL.n822 VTAIL.n821 104.615
R356 VTAIL.n822 VTAIL.n741 104.615
R357 VTAIL.n829 VTAIL.n741 104.615
R358 VTAIL.n830 VTAIL.n829 104.615
R359 VTAIL.n830 VTAIL.n737 104.615
R360 VTAIL.n837 VTAIL.n737 104.615
R361 VTAIL.n38 VTAIL.n37 104.615
R362 VTAIL.n38 VTAIL.n31 104.615
R363 VTAIL.n45 VTAIL.n31 104.615
R364 VTAIL.n46 VTAIL.n45 104.615
R365 VTAIL.n46 VTAIL.n27 104.615
R366 VTAIL.n54 VTAIL.n27 104.615
R367 VTAIL.n55 VTAIL.n54 104.615
R368 VTAIL.n56 VTAIL.n55 104.615
R369 VTAIL.n56 VTAIL.n23 104.615
R370 VTAIL.n63 VTAIL.n23 104.615
R371 VTAIL.n64 VTAIL.n63 104.615
R372 VTAIL.n64 VTAIL.n19 104.615
R373 VTAIL.n71 VTAIL.n19 104.615
R374 VTAIL.n72 VTAIL.n71 104.615
R375 VTAIL.n72 VTAIL.n15 104.615
R376 VTAIL.n79 VTAIL.n15 104.615
R377 VTAIL.n80 VTAIL.n79 104.615
R378 VTAIL.n80 VTAIL.n11 104.615
R379 VTAIL.n87 VTAIL.n11 104.615
R380 VTAIL.n88 VTAIL.n87 104.615
R381 VTAIL.n88 VTAIL.n7 104.615
R382 VTAIL.n95 VTAIL.n7 104.615
R383 VTAIL.n96 VTAIL.n95 104.615
R384 VTAIL.n96 VTAIL.n3 104.615
R385 VTAIL.n103 VTAIL.n3 104.615
R386 VTAIL.n142 VTAIL.n141 104.615
R387 VTAIL.n142 VTAIL.n135 104.615
R388 VTAIL.n149 VTAIL.n135 104.615
R389 VTAIL.n150 VTAIL.n149 104.615
R390 VTAIL.n150 VTAIL.n131 104.615
R391 VTAIL.n158 VTAIL.n131 104.615
R392 VTAIL.n159 VTAIL.n158 104.615
R393 VTAIL.n160 VTAIL.n159 104.615
R394 VTAIL.n160 VTAIL.n127 104.615
R395 VTAIL.n167 VTAIL.n127 104.615
R396 VTAIL.n168 VTAIL.n167 104.615
R397 VTAIL.n168 VTAIL.n123 104.615
R398 VTAIL.n175 VTAIL.n123 104.615
R399 VTAIL.n176 VTAIL.n175 104.615
R400 VTAIL.n176 VTAIL.n119 104.615
R401 VTAIL.n183 VTAIL.n119 104.615
R402 VTAIL.n184 VTAIL.n183 104.615
R403 VTAIL.n184 VTAIL.n115 104.615
R404 VTAIL.n191 VTAIL.n115 104.615
R405 VTAIL.n192 VTAIL.n191 104.615
R406 VTAIL.n192 VTAIL.n111 104.615
R407 VTAIL.n199 VTAIL.n111 104.615
R408 VTAIL.n200 VTAIL.n199 104.615
R409 VTAIL.n200 VTAIL.n107 104.615
R410 VTAIL.n207 VTAIL.n107 104.615
R411 VTAIL.n248 VTAIL.n247 104.615
R412 VTAIL.n248 VTAIL.n241 104.615
R413 VTAIL.n255 VTAIL.n241 104.615
R414 VTAIL.n256 VTAIL.n255 104.615
R415 VTAIL.n256 VTAIL.n237 104.615
R416 VTAIL.n264 VTAIL.n237 104.615
R417 VTAIL.n265 VTAIL.n264 104.615
R418 VTAIL.n266 VTAIL.n265 104.615
R419 VTAIL.n266 VTAIL.n233 104.615
R420 VTAIL.n273 VTAIL.n233 104.615
R421 VTAIL.n274 VTAIL.n273 104.615
R422 VTAIL.n274 VTAIL.n229 104.615
R423 VTAIL.n281 VTAIL.n229 104.615
R424 VTAIL.n282 VTAIL.n281 104.615
R425 VTAIL.n282 VTAIL.n225 104.615
R426 VTAIL.n289 VTAIL.n225 104.615
R427 VTAIL.n290 VTAIL.n289 104.615
R428 VTAIL.n290 VTAIL.n221 104.615
R429 VTAIL.n297 VTAIL.n221 104.615
R430 VTAIL.n298 VTAIL.n297 104.615
R431 VTAIL.n298 VTAIL.n217 104.615
R432 VTAIL.n305 VTAIL.n217 104.615
R433 VTAIL.n306 VTAIL.n305 104.615
R434 VTAIL.n306 VTAIL.n213 104.615
R435 VTAIL.n313 VTAIL.n213 104.615
R436 VTAIL.n733 VTAIL.n633 104.615
R437 VTAIL.n726 VTAIL.n633 104.615
R438 VTAIL.n726 VTAIL.n725 104.615
R439 VTAIL.n725 VTAIL.n637 104.615
R440 VTAIL.n718 VTAIL.n637 104.615
R441 VTAIL.n718 VTAIL.n717 104.615
R442 VTAIL.n717 VTAIL.n641 104.615
R443 VTAIL.n710 VTAIL.n641 104.615
R444 VTAIL.n710 VTAIL.n709 104.615
R445 VTAIL.n709 VTAIL.n645 104.615
R446 VTAIL.n702 VTAIL.n645 104.615
R447 VTAIL.n702 VTAIL.n701 104.615
R448 VTAIL.n701 VTAIL.n649 104.615
R449 VTAIL.n694 VTAIL.n649 104.615
R450 VTAIL.n694 VTAIL.n693 104.615
R451 VTAIL.n693 VTAIL.n653 104.615
R452 VTAIL.n658 VTAIL.n653 104.615
R453 VTAIL.n686 VTAIL.n658 104.615
R454 VTAIL.n686 VTAIL.n685 104.615
R455 VTAIL.n685 VTAIL.n659 104.615
R456 VTAIL.n678 VTAIL.n659 104.615
R457 VTAIL.n678 VTAIL.n677 104.615
R458 VTAIL.n677 VTAIL.n663 104.615
R459 VTAIL.n670 VTAIL.n663 104.615
R460 VTAIL.n670 VTAIL.n669 104.615
R461 VTAIL.n627 VTAIL.n527 104.615
R462 VTAIL.n620 VTAIL.n527 104.615
R463 VTAIL.n620 VTAIL.n619 104.615
R464 VTAIL.n619 VTAIL.n531 104.615
R465 VTAIL.n612 VTAIL.n531 104.615
R466 VTAIL.n612 VTAIL.n611 104.615
R467 VTAIL.n611 VTAIL.n535 104.615
R468 VTAIL.n604 VTAIL.n535 104.615
R469 VTAIL.n604 VTAIL.n603 104.615
R470 VTAIL.n603 VTAIL.n539 104.615
R471 VTAIL.n596 VTAIL.n539 104.615
R472 VTAIL.n596 VTAIL.n595 104.615
R473 VTAIL.n595 VTAIL.n543 104.615
R474 VTAIL.n588 VTAIL.n543 104.615
R475 VTAIL.n588 VTAIL.n587 104.615
R476 VTAIL.n587 VTAIL.n547 104.615
R477 VTAIL.n552 VTAIL.n547 104.615
R478 VTAIL.n580 VTAIL.n552 104.615
R479 VTAIL.n580 VTAIL.n579 104.615
R480 VTAIL.n579 VTAIL.n553 104.615
R481 VTAIL.n572 VTAIL.n553 104.615
R482 VTAIL.n572 VTAIL.n571 104.615
R483 VTAIL.n571 VTAIL.n557 104.615
R484 VTAIL.n564 VTAIL.n557 104.615
R485 VTAIL.n564 VTAIL.n563 104.615
R486 VTAIL.n523 VTAIL.n423 104.615
R487 VTAIL.n516 VTAIL.n423 104.615
R488 VTAIL.n516 VTAIL.n515 104.615
R489 VTAIL.n515 VTAIL.n427 104.615
R490 VTAIL.n508 VTAIL.n427 104.615
R491 VTAIL.n508 VTAIL.n507 104.615
R492 VTAIL.n507 VTAIL.n431 104.615
R493 VTAIL.n500 VTAIL.n431 104.615
R494 VTAIL.n500 VTAIL.n499 104.615
R495 VTAIL.n499 VTAIL.n435 104.615
R496 VTAIL.n492 VTAIL.n435 104.615
R497 VTAIL.n492 VTAIL.n491 104.615
R498 VTAIL.n491 VTAIL.n439 104.615
R499 VTAIL.n484 VTAIL.n439 104.615
R500 VTAIL.n484 VTAIL.n483 104.615
R501 VTAIL.n483 VTAIL.n443 104.615
R502 VTAIL.n448 VTAIL.n443 104.615
R503 VTAIL.n476 VTAIL.n448 104.615
R504 VTAIL.n476 VTAIL.n475 104.615
R505 VTAIL.n475 VTAIL.n449 104.615
R506 VTAIL.n468 VTAIL.n449 104.615
R507 VTAIL.n468 VTAIL.n467 104.615
R508 VTAIL.n467 VTAIL.n453 104.615
R509 VTAIL.n460 VTAIL.n453 104.615
R510 VTAIL.n460 VTAIL.n459 104.615
R511 VTAIL.n417 VTAIL.n317 104.615
R512 VTAIL.n410 VTAIL.n317 104.615
R513 VTAIL.n410 VTAIL.n409 104.615
R514 VTAIL.n409 VTAIL.n321 104.615
R515 VTAIL.n402 VTAIL.n321 104.615
R516 VTAIL.n402 VTAIL.n401 104.615
R517 VTAIL.n401 VTAIL.n325 104.615
R518 VTAIL.n394 VTAIL.n325 104.615
R519 VTAIL.n394 VTAIL.n393 104.615
R520 VTAIL.n393 VTAIL.n329 104.615
R521 VTAIL.n386 VTAIL.n329 104.615
R522 VTAIL.n386 VTAIL.n385 104.615
R523 VTAIL.n385 VTAIL.n333 104.615
R524 VTAIL.n378 VTAIL.n333 104.615
R525 VTAIL.n378 VTAIL.n377 104.615
R526 VTAIL.n377 VTAIL.n337 104.615
R527 VTAIL.n342 VTAIL.n337 104.615
R528 VTAIL.n370 VTAIL.n342 104.615
R529 VTAIL.n370 VTAIL.n369 104.615
R530 VTAIL.n369 VTAIL.n343 104.615
R531 VTAIL.n362 VTAIL.n343 104.615
R532 VTAIL.n362 VTAIL.n361 104.615
R533 VTAIL.n361 VTAIL.n347 104.615
R534 VTAIL.n354 VTAIL.n347 104.615
R535 VTAIL.n354 VTAIL.n353 104.615
R536 VTAIL.n771 VTAIL.t13 52.3082
R537 VTAIL.n37 VTAIL.t9 52.3082
R538 VTAIL.n141 VTAIL.t2 52.3082
R539 VTAIL.n247 VTAIL.t7 52.3082
R540 VTAIL.n669 VTAIL.t6 52.3082
R541 VTAIL.n563 VTAIL.t1 52.3082
R542 VTAIL.n459 VTAIL.t10 52.3082
R543 VTAIL.n353 VTAIL.t15 52.3082
R544 VTAIL.n631 VTAIL.n630 45.6236
R545 VTAIL.n421 VTAIL.n420 45.6236
R546 VTAIL.n1 VTAIL.n0 45.6226
R547 VTAIL.n211 VTAIL.n210 45.6226
R548 VTAIL.n839 VTAIL.n838 33.9308
R549 VTAIL.n105 VTAIL.n104 33.9308
R550 VTAIL.n209 VTAIL.n208 33.9308
R551 VTAIL.n315 VTAIL.n314 33.9308
R552 VTAIL.n735 VTAIL.n734 33.9308
R553 VTAIL.n629 VTAIL.n628 33.9308
R554 VTAIL.n525 VTAIL.n524 33.9308
R555 VTAIL.n419 VTAIL.n418 33.9308
R556 VTAIL.n839 VTAIL.n735 31.4789
R557 VTAIL.n419 VTAIL.n315 31.4789
R558 VTAIL.n791 VTAIL.n758 13.1884
R559 VTAIL.n57 VTAIL.n24 13.1884
R560 VTAIL.n161 VTAIL.n128 13.1884
R561 VTAIL.n267 VTAIL.n234 13.1884
R562 VTAIL.n656 VTAIL.n654 13.1884
R563 VTAIL.n550 VTAIL.n548 13.1884
R564 VTAIL.n446 VTAIL.n444 13.1884
R565 VTAIL.n340 VTAIL.n338 13.1884
R566 VTAIL.n792 VTAIL.n760 12.8005
R567 VTAIL.n796 VTAIL.n795 12.8005
R568 VTAIL.n836 VTAIL.n736 12.8005
R569 VTAIL.n58 VTAIL.n26 12.8005
R570 VTAIL.n62 VTAIL.n61 12.8005
R571 VTAIL.n102 VTAIL.n2 12.8005
R572 VTAIL.n162 VTAIL.n130 12.8005
R573 VTAIL.n166 VTAIL.n165 12.8005
R574 VTAIL.n206 VTAIL.n106 12.8005
R575 VTAIL.n268 VTAIL.n236 12.8005
R576 VTAIL.n272 VTAIL.n271 12.8005
R577 VTAIL.n312 VTAIL.n212 12.8005
R578 VTAIL.n732 VTAIL.n632 12.8005
R579 VTAIL.n692 VTAIL.n691 12.8005
R580 VTAIL.n688 VTAIL.n687 12.8005
R581 VTAIL.n626 VTAIL.n526 12.8005
R582 VTAIL.n586 VTAIL.n585 12.8005
R583 VTAIL.n582 VTAIL.n581 12.8005
R584 VTAIL.n522 VTAIL.n422 12.8005
R585 VTAIL.n482 VTAIL.n481 12.8005
R586 VTAIL.n478 VTAIL.n477 12.8005
R587 VTAIL.n416 VTAIL.n316 12.8005
R588 VTAIL.n376 VTAIL.n375 12.8005
R589 VTAIL.n372 VTAIL.n371 12.8005
R590 VTAIL.n787 VTAIL.n786 12.0247
R591 VTAIL.n799 VTAIL.n756 12.0247
R592 VTAIL.n835 VTAIL.n738 12.0247
R593 VTAIL.n53 VTAIL.n52 12.0247
R594 VTAIL.n65 VTAIL.n22 12.0247
R595 VTAIL.n101 VTAIL.n4 12.0247
R596 VTAIL.n157 VTAIL.n156 12.0247
R597 VTAIL.n169 VTAIL.n126 12.0247
R598 VTAIL.n205 VTAIL.n108 12.0247
R599 VTAIL.n263 VTAIL.n262 12.0247
R600 VTAIL.n275 VTAIL.n232 12.0247
R601 VTAIL.n311 VTAIL.n214 12.0247
R602 VTAIL.n731 VTAIL.n634 12.0247
R603 VTAIL.n695 VTAIL.n652 12.0247
R604 VTAIL.n684 VTAIL.n657 12.0247
R605 VTAIL.n625 VTAIL.n528 12.0247
R606 VTAIL.n589 VTAIL.n546 12.0247
R607 VTAIL.n578 VTAIL.n551 12.0247
R608 VTAIL.n521 VTAIL.n424 12.0247
R609 VTAIL.n485 VTAIL.n442 12.0247
R610 VTAIL.n474 VTAIL.n447 12.0247
R611 VTAIL.n415 VTAIL.n318 12.0247
R612 VTAIL.n379 VTAIL.n336 12.0247
R613 VTAIL.n368 VTAIL.n341 12.0247
R614 VTAIL.n785 VTAIL.n762 11.249
R615 VTAIL.n800 VTAIL.n754 11.249
R616 VTAIL.n832 VTAIL.n831 11.249
R617 VTAIL.n51 VTAIL.n28 11.249
R618 VTAIL.n66 VTAIL.n20 11.249
R619 VTAIL.n98 VTAIL.n97 11.249
R620 VTAIL.n155 VTAIL.n132 11.249
R621 VTAIL.n170 VTAIL.n124 11.249
R622 VTAIL.n202 VTAIL.n201 11.249
R623 VTAIL.n261 VTAIL.n238 11.249
R624 VTAIL.n276 VTAIL.n230 11.249
R625 VTAIL.n308 VTAIL.n307 11.249
R626 VTAIL.n728 VTAIL.n727 11.249
R627 VTAIL.n696 VTAIL.n650 11.249
R628 VTAIL.n683 VTAIL.n660 11.249
R629 VTAIL.n622 VTAIL.n621 11.249
R630 VTAIL.n590 VTAIL.n544 11.249
R631 VTAIL.n577 VTAIL.n554 11.249
R632 VTAIL.n518 VTAIL.n517 11.249
R633 VTAIL.n486 VTAIL.n440 11.249
R634 VTAIL.n473 VTAIL.n450 11.249
R635 VTAIL.n412 VTAIL.n411 11.249
R636 VTAIL.n380 VTAIL.n334 11.249
R637 VTAIL.n367 VTAIL.n344 11.249
R638 VTAIL.n782 VTAIL.n781 10.4732
R639 VTAIL.n804 VTAIL.n803 10.4732
R640 VTAIL.n828 VTAIL.n740 10.4732
R641 VTAIL.n48 VTAIL.n47 10.4732
R642 VTAIL.n70 VTAIL.n69 10.4732
R643 VTAIL.n94 VTAIL.n6 10.4732
R644 VTAIL.n152 VTAIL.n151 10.4732
R645 VTAIL.n174 VTAIL.n173 10.4732
R646 VTAIL.n198 VTAIL.n110 10.4732
R647 VTAIL.n258 VTAIL.n257 10.4732
R648 VTAIL.n280 VTAIL.n279 10.4732
R649 VTAIL.n304 VTAIL.n216 10.4732
R650 VTAIL.n724 VTAIL.n636 10.4732
R651 VTAIL.n700 VTAIL.n699 10.4732
R652 VTAIL.n680 VTAIL.n679 10.4732
R653 VTAIL.n618 VTAIL.n530 10.4732
R654 VTAIL.n594 VTAIL.n593 10.4732
R655 VTAIL.n574 VTAIL.n573 10.4732
R656 VTAIL.n514 VTAIL.n426 10.4732
R657 VTAIL.n490 VTAIL.n489 10.4732
R658 VTAIL.n470 VTAIL.n469 10.4732
R659 VTAIL.n408 VTAIL.n320 10.4732
R660 VTAIL.n384 VTAIL.n383 10.4732
R661 VTAIL.n364 VTAIL.n363 10.4732
R662 VTAIL.n770 VTAIL.n769 10.2747
R663 VTAIL.n36 VTAIL.n35 10.2747
R664 VTAIL.n140 VTAIL.n139 10.2747
R665 VTAIL.n246 VTAIL.n245 10.2747
R666 VTAIL.n668 VTAIL.n667 10.2747
R667 VTAIL.n562 VTAIL.n561 10.2747
R668 VTAIL.n458 VTAIL.n457 10.2747
R669 VTAIL.n352 VTAIL.n351 10.2747
R670 VTAIL.n778 VTAIL.n764 9.69747
R671 VTAIL.n807 VTAIL.n752 9.69747
R672 VTAIL.n827 VTAIL.n742 9.69747
R673 VTAIL.n44 VTAIL.n30 9.69747
R674 VTAIL.n73 VTAIL.n18 9.69747
R675 VTAIL.n93 VTAIL.n8 9.69747
R676 VTAIL.n148 VTAIL.n134 9.69747
R677 VTAIL.n177 VTAIL.n122 9.69747
R678 VTAIL.n197 VTAIL.n112 9.69747
R679 VTAIL.n254 VTAIL.n240 9.69747
R680 VTAIL.n283 VTAIL.n228 9.69747
R681 VTAIL.n303 VTAIL.n218 9.69747
R682 VTAIL.n723 VTAIL.n638 9.69747
R683 VTAIL.n703 VTAIL.n648 9.69747
R684 VTAIL.n676 VTAIL.n662 9.69747
R685 VTAIL.n617 VTAIL.n532 9.69747
R686 VTAIL.n597 VTAIL.n542 9.69747
R687 VTAIL.n570 VTAIL.n556 9.69747
R688 VTAIL.n513 VTAIL.n428 9.69747
R689 VTAIL.n493 VTAIL.n438 9.69747
R690 VTAIL.n466 VTAIL.n452 9.69747
R691 VTAIL.n407 VTAIL.n322 9.69747
R692 VTAIL.n387 VTAIL.n332 9.69747
R693 VTAIL.n360 VTAIL.n346 9.69747
R694 VTAIL.n834 VTAIL.n736 9.45567
R695 VTAIL.n100 VTAIL.n2 9.45567
R696 VTAIL.n204 VTAIL.n106 9.45567
R697 VTAIL.n310 VTAIL.n212 9.45567
R698 VTAIL.n730 VTAIL.n632 9.45567
R699 VTAIL.n624 VTAIL.n526 9.45567
R700 VTAIL.n520 VTAIL.n422 9.45567
R701 VTAIL.n414 VTAIL.n316 9.45567
R702 VTAIL.n817 VTAIL.n816 9.3005
R703 VTAIL.n819 VTAIL.n818 9.3005
R704 VTAIL.n744 VTAIL.n743 9.3005
R705 VTAIL.n825 VTAIL.n824 9.3005
R706 VTAIL.n827 VTAIL.n826 9.3005
R707 VTAIL.n740 VTAIL.n739 9.3005
R708 VTAIL.n833 VTAIL.n832 9.3005
R709 VTAIL.n835 VTAIL.n834 9.3005
R710 VTAIL.n811 VTAIL.n810 9.3005
R711 VTAIL.n809 VTAIL.n808 9.3005
R712 VTAIL.n752 VTAIL.n751 9.3005
R713 VTAIL.n803 VTAIL.n802 9.3005
R714 VTAIL.n801 VTAIL.n800 9.3005
R715 VTAIL.n756 VTAIL.n755 9.3005
R716 VTAIL.n795 VTAIL.n794 9.3005
R717 VTAIL.n768 VTAIL.n767 9.3005
R718 VTAIL.n775 VTAIL.n774 9.3005
R719 VTAIL.n777 VTAIL.n776 9.3005
R720 VTAIL.n764 VTAIL.n763 9.3005
R721 VTAIL.n783 VTAIL.n782 9.3005
R722 VTAIL.n785 VTAIL.n784 9.3005
R723 VTAIL.n786 VTAIL.n759 9.3005
R724 VTAIL.n793 VTAIL.n792 9.3005
R725 VTAIL.n748 VTAIL.n747 9.3005
R726 VTAIL.n83 VTAIL.n82 9.3005
R727 VTAIL.n85 VTAIL.n84 9.3005
R728 VTAIL.n10 VTAIL.n9 9.3005
R729 VTAIL.n91 VTAIL.n90 9.3005
R730 VTAIL.n93 VTAIL.n92 9.3005
R731 VTAIL.n6 VTAIL.n5 9.3005
R732 VTAIL.n99 VTAIL.n98 9.3005
R733 VTAIL.n101 VTAIL.n100 9.3005
R734 VTAIL.n77 VTAIL.n76 9.3005
R735 VTAIL.n75 VTAIL.n74 9.3005
R736 VTAIL.n18 VTAIL.n17 9.3005
R737 VTAIL.n69 VTAIL.n68 9.3005
R738 VTAIL.n67 VTAIL.n66 9.3005
R739 VTAIL.n22 VTAIL.n21 9.3005
R740 VTAIL.n61 VTAIL.n60 9.3005
R741 VTAIL.n34 VTAIL.n33 9.3005
R742 VTAIL.n41 VTAIL.n40 9.3005
R743 VTAIL.n43 VTAIL.n42 9.3005
R744 VTAIL.n30 VTAIL.n29 9.3005
R745 VTAIL.n49 VTAIL.n48 9.3005
R746 VTAIL.n51 VTAIL.n50 9.3005
R747 VTAIL.n52 VTAIL.n25 9.3005
R748 VTAIL.n59 VTAIL.n58 9.3005
R749 VTAIL.n14 VTAIL.n13 9.3005
R750 VTAIL.n187 VTAIL.n186 9.3005
R751 VTAIL.n189 VTAIL.n188 9.3005
R752 VTAIL.n114 VTAIL.n113 9.3005
R753 VTAIL.n195 VTAIL.n194 9.3005
R754 VTAIL.n197 VTAIL.n196 9.3005
R755 VTAIL.n110 VTAIL.n109 9.3005
R756 VTAIL.n203 VTAIL.n202 9.3005
R757 VTAIL.n205 VTAIL.n204 9.3005
R758 VTAIL.n181 VTAIL.n180 9.3005
R759 VTAIL.n179 VTAIL.n178 9.3005
R760 VTAIL.n122 VTAIL.n121 9.3005
R761 VTAIL.n173 VTAIL.n172 9.3005
R762 VTAIL.n171 VTAIL.n170 9.3005
R763 VTAIL.n126 VTAIL.n125 9.3005
R764 VTAIL.n165 VTAIL.n164 9.3005
R765 VTAIL.n138 VTAIL.n137 9.3005
R766 VTAIL.n145 VTAIL.n144 9.3005
R767 VTAIL.n147 VTAIL.n146 9.3005
R768 VTAIL.n134 VTAIL.n133 9.3005
R769 VTAIL.n153 VTAIL.n152 9.3005
R770 VTAIL.n155 VTAIL.n154 9.3005
R771 VTAIL.n156 VTAIL.n129 9.3005
R772 VTAIL.n163 VTAIL.n162 9.3005
R773 VTAIL.n118 VTAIL.n117 9.3005
R774 VTAIL.n293 VTAIL.n292 9.3005
R775 VTAIL.n295 VTAIL.n294 9.3005
R776 VTAIL.n220 VTAIL.n219 9.3005
R777 VTAIL.n301 VTAIL.n300 9.3005
R778 VTAIL.n303 VTAIL.n302 9.3005
R779 VTAIL.n216 VTAIL.n215 9.3005
R780 VTAIL.n309 VTAIL.n308 9.3005
R781 VTAIL.n311 VTAIL.n310 9.3005
R782 VTAIL.n287 VTAIL.n286 9.3005
R783 VTAIL.n285 VTAIL.n284 9.3005
R784 VTAIL.n228 VTAIL.n227 9.3005
R785 VTAIL.n279 VTAIL.n278 9.3005
R786 VTAIL.n277 VTAIL.n276 9.3005
R787 VTAIL.n232 VTAIL.n231 9.3005
R788 VTAIL.n271 VTAIL.n270 9.3005
R789 VTAIL.n244 VTAIL.n243 9.3005
R790 VTAIL.n251 VTAIL.n250 9.3005
R791 VTAIL.n253 VTAIL.n252 9.3005
R792 VTAIL.n240 VTAIL.n239 9.3005
R793 VTAIL.n259 VTAIL.n258 9.3005
R794 VTAIL.n261 VTAIL.n260 9.3005
R795 VTAIL.n262 VTAIL.n235 9.3005
R796 VTAIL.n269 VTAIL.n268 9.3005
R797 VTAIL.n224 VTAIL.n223 9.3005
R798 VTAIL.n731 VTAIL.n730 9.3005
R799 VTAIL.n729 VTAIL.n728 9.3005
R800 VTAIL.n636 VTAIL.n635 9.3005
R801 VTAIL.n723 VTAIL.n722 9.3005
R802 VTAIL.n721 VTAIL.n720 9.3005
R803 VTAIL.n640 VTAIL.n639 9.3005
R804 VTAIL.n715 VTAIL.n714 9.3005
R805 VTAIL.n713 VTAIL.n712 9.3005
R806 VTAIL.n644 VTAIL.n643 9.3005
R807 VTAIL.n707 VTAIL.n706 9.3005
R808 VTAIL.n705 VTAIL.n704 9.3005
R809 VTAIL.n648 VTAIL.n647 9.3005
R810 VTAIL.n699 VTAIL.n698 9.3005
R811 VTAIL.n697 VTAIL.n696 9.3005
R812 VTAIL.n652 VTAIL.n651 9.3005
R813 VTAIL.n691 VTAIL.n690 9.3005
R814 VTAIL.n689 VTAIL.n688 9.3005
R815 VTAIL.n657 VTAIL.n655 9.3005
R816 VTAIL.n683 VTAIL.n682 9.3005
R817 VTAIL.n681 VTAIL.n680 9.3005
R818 VTAIL.n662 VTAIL.n661 9.3005
R819 VTAIL.n675 VTAIL.n674 9.3005
R820 VTAIL.n673 VTAIL.n672 9.3005
R821 VTAIL.n666 VTAIL.n665 9.3005
R822 VTAIL.n560 VTAIL.n559 9.3005
R823 VTAIL.n567 VTAIL.n566 9.3005
R824 VTAIL.n569 VTAIL.n568 9.3005
R825 VTAIL.n556 VTAIL.n555 9.3005
R826 VTAIL.n575 VTAIL.n574 9.3005
R827 VTAIL.n577 VTAIL.n576 9.3005
R828 VTAIL.n551 VTAIL.n549 9.3005
R829 VTAIL.n583 VTAIL.n582 9.3005
R830 VTAIL.n609 VTAIL.n608 9.3005
R831 VTAIL.n534 VTAIL.n533 9.3005
R832 VTAIL.n615 VTAIL.n614 9.3005
R833 VTAIL.n617 VTAIL.n616 9.3005
R834 VTAIL.n530 VTAIL.n529 9.3005
R835 VTAIL.n623 VTAIL.n622 9.3005
R836 VTAIL.n625 VTAIL.n624 9.3005
R837 VTAIL.n607 VTAIL.n606 9.3005
R838 VTAIL.n538 VTAIL.n537 9.3005
R839 VTAIL.n601 VTAIL.n600 9.3005
R840 VTAIL.n599 VTAIL.n598 9.3005
R841 VTAIL.n542 VTAIL.n541 9.3005
R842 VTAIL.n593 VTAIL.n592 9.3005
R843 VTAIL.n591 VTAIL.n590 9.3005
R844 VTAIL.n546 VTAIL.n545 9.3005
R845 VTAIL.n585 VTAIL.n584 9.3005
R846 VTAIL.n456 VTAIL.n455 9.3005
R847 VTAIL.n463 VTAIL.n462 9.3005
R848 VTAIL.n465 VTAIL.n464 9.3005
R849 VTAIL.n452 VTAIL.n451 9.3005
R850 VTAIL.n471 VTAIL.n470 9.3005
R851 VTAIL.n473 VTAIL.n472 9.3005
R852 VTAIL.n447 VTAIL.n445 9.3005
R853 VTAIL.n479 VTAIL.n478 9.3005
R854 VTAIL.n505 VTAIL.n504 9.3005
R855 VTAIL.n430 VTAIL.n429 9.3005
R856 VTAIL.n511 VTAIL.n510 9.3005
R857 VTAIL.n513 VTAIL.n512 9.3005