* NGSPICE file created from tg_sample_0005.ext - technology: sky130A

.subckt tg_sample_0005 VIN VGN VGP VSS VCC VOUT
X0 VCC.t7 VCC.t4 VCC.t6 VCC.t5 sky130_fd_pr__pfet_01v8 ad=4.6449 pd=24.6 as=0 ps=0 w=11.91 l=0.37
X1 VOUT.t3 VGN.t0 VIN.t2 VSS.t1 sky130_fd_pr__nfet_01v8 ad=1.6665 pd=10.43 as=3.939 ps=20.98 w=10.1 l=2.14
X2 VSS.t9 VSS.t6 VSS.t8 VSS.t7 sky130_fd_pr__nfet_01v8 ad=3.939 pd=20.98 as=0 ps=0 w=10.1 l=2.14
X3 VIN.t0 VGP.t0 VOUT.t0 VCC.t8 sky130_fd_pr__pfet_01v8 ad=4.6449 pd=24.6 as=1.96515 ps=12.24 w=11.91 l=0.37
X4 VSS.t5 VSS.t2 VSS.t4 VSS.t3 sky130_fd_pr__nfet_01v8 ad=3.939 pd=20.98 as=0 ps=0 w=10.1 l=2.14
X5 VCC.t3 VCC.t0 VCC.t2 VCC.t1 sky130_fd_pr__pfet_01v8 ad=4.6449 pd=24.6 as=0 ps=0 w=11.91 l=0.37
X6 VOUT.t1 VGP.t1 VIN.t1 VCC.t9 sky130_fd_pr__pfet_01v8 ad=1.96515 pd=12.24 as=4.6449 ps=24.6 w=11.91 l=0.37
X7 VIN.t3 VGN.t1 VOUT.t2 VSS.t0 sky130_fd_pr__nfet_01v8 ad=3.939 pd=20.98 as=1.6665 ps=10.43 w=10.1 l=2.14
R0 VCC.n192 VCC.t0 986.402
R1 VCC.n54 VCC.t4 986.402
R2 VCC.n279 VCC.n9 421.464
R3 VCC.n277 VCC.n12 421.464
R4 VCC.n138 VCC.n32 421.464
R5 VCC.n134 VCC.n28 421.464
R6 VCC.n192 VCC.t2 387.361
R7 VCC.n54 VCC.t7 387.361
R8 VCC.n193 VCC.t3 373.784
R9 VCC.n55 VCC.t6 373.784
R10 VCC.n277 VCC.n276 185
R11 VCC.n278 VCC.n277 185
R12 VCC.n13 VCC.n11 185
R13 VCC.n165 VCC.n11 185
R14 VCC.n169 VCC.n168 185
R15 VCC.n168 VCC.n167 185
R16 VCC.n16 VCC.n15 185
R17 VCC.n164 VCC.n16 185
R18 VCC.n162 VCC.n161 185
R19 VCC.n163 VCC.n162 185
R20 VCC.n18 VCC.n17 185
R21 VCC.n23 VCC.n17 185
R22 VCC.n157 VCC.n156 185
R23 VCC.n156 VCC.n155 185
R24 VCC.n21 VCC.n20 185
R25 VCC.n22 VCC.n21 185
R26 VCC.n144 VCC.n143 185
R27 VCC.n145 VCC.n144 185
R28 VCC.n30 VCC.n29 185
R29 VCC.n146 VCC.n29 185
R30 VCC.n139 VCC.n138 185
R31 VCC.n138 VCC.n137 185
R32 VCC.n28 VCC.n27 185
R33 VCC.n137 VCC.n28 185
R34 VCC.n148 VCC.n147 185
R35 VCC.n147 VCC.n146 185
R36 VCC.n25 VCC.n24 185
R37 VCC.n145 VCC.n24 185
R38 VCC.n153 VCC.n152 185
R39 VCC.n153 VCC.n22 185
R40 VCC.n154 VCC.n2 185
R41 VCC.n155 VCC.n154 185
R42 VCC.n287 VCC.n3 185
R43 VCC.n23 VCC.n3 185
R44 VCC.n286 VCC.n4 185
R45 VCC.n163 VCC.n4 185
R46 VCC.n285 VCC.n5 185
R47 VCC.n164 VCC.n5 185
R48 VCC.n166 VCC.n6 185
R49 VCC.n167 VCC.n166 185
R50 VCC.n281 VCC.n8 185
R51 VCC.n165 VCC.n8 185
R52 VCC.n280 VCC.n279 185
R53 VCC.n279 VCC.n278 185
R54 VCC.n274 VCC.n12 185
R55 VCC.n273 VCC.n272 185
R56 VCC.n270 VCC.n172 185
R57 VCC.n268 VCC.n267 185
R58 VCC.n266 VCC.n173 185
R59 VCC.n265 VCC.n264 185
R60 VCC.n262 VCC.n174 185
R61 VCC.n260 VCC.n259 185
R62 VCC.n258 VCC.n175 185
R63 VCC.n257 VCC.n256 185
R64 VCC.n254 VCC.n176 185
R65 VCC.n252 VCC.n251 185
R66 VCC.n250 VCC.n177 185
R67 VCC.n249 VCC.n248 185
R68 VCC.n246 VCC.n178 185
R69 VCC.n244 VCC.n243 185
R70 VCC.n242 VCC.n179 185
R71 VCC.n241 VCC.n240 185
R72 VCC.n238 VCC.n180 185
R73 VCC.n236 VCC.n235 185
R74 VCC.n234 VCC.n181 185
R75 VCC.n233 VCC.n232 185
R76 VCC.n230 VCC.n182 185
R77 VCC.n228 VCC.n227 185
R78 VCC.n226 VCC.n183 185
R79 VCC.n225 VCC.n224 185
R80 VCC.n222 VCC.n184 185
R81 VCC.n220 VCC.n219 185
R82 VCC.n218 VCC.n185 185
R83 VCC.n217 VCC.n216 185
R84 VCC.n214 VCC.n186 185
R85 VCC.n212 VCC.n211 185
R86 VCC.n210 VCC.n187 185
R87 VCC.n209 VCC.n208 185
R88 VCC.n206 VCC.n188 185
R89 VCC.n204 VCC.n203 185
R90 VCC.n202 VCC.n189 185
R91 VCC.n201 VCC.n200 185
R92 VCC.n198 VCC.n190 185
R93 VCC.n196 VCC.n195 185
R94 VCC.n191 VCC.n9 185
R95 VCC.n10 VCC.n9 185
R96 VCC.n134 VCC.n133 185
R97 VCC.n132 VCC.n53 185
R98 VCC.n130 VCC.n52 185
R99 VCC.n136 VCC.n52 185
R100 VCC.n129 VCC.n128 185
R101 VCC.n127 VCC.n126 185
R102 VCC.n125 VCC.n124 185
R103 VCC.n123 VCC.n122 185
R104 VCC.n121 VCC.n120 185
R105 VCC.n119 VCC.n118 185
R106 VCC.n117 VCC.n116 185
R107 VCC.n115 VCC.n114 185
R108 VCC.n113 VCC.n112 185
R109 VCC.n111 VCC.n110 185
R110 VCC.n109 VCC.n108 185
R111 VCC.n107 VCC.n106 185
R112 VCC.n105 VCC.n104 185
R113 VCC.n103 VCC.n102 185
R114 VCC.n101 VCC.n100 185
R115 VCC.n99 VCC.n98 185
R116 VCC.n97 VCC.n96 185
R117 VCC.n95 VCC.n94 185
R118 VCC.n93 VCC.n92 185
R119 VCC.n91 VCC.n90 185
R120 VCC.n89 VCC.n88 185
R121 VCC.n87 VCC.n86 185
R122 VCC.n85 VCC.n84 185
R123 VCC.n83 VCC.n82 185
R124 VCC.n81 VCC.n80 185
R125 VCC.n79 VCC.n78 185
R126 VCC.n77 VCC.n76 185
R127 VCC.n75 VCC.n74 185
R128 VCC.n73 VCC.n72 185
R129 VCC.n71 VCC.n70 185
R130 VCC.n69 VCC.n68 185
R131 VCC.n67 VCC.n66 185
R132 VCC.n65 VCC.n64 185
R133 VCC.n63 VCC.n62 185
R134 VCC.n61 VCC.n60 185
R135 VCC.n59 VCC.n58 185
R136 VCC.n57 VCC.n56 185
R137 VCC.n32 VCC.n31 185
R138 VCC.n138 VCC.n29 146.341
R139 VCC.n144 VCC.n29 146.341
R140 VCC.n144 VCC.n21 146.341
R141 VCC.n156 VCC.n21 146.341
R142 VCC.n156 VCC.n17 146.341
R143 VCC.n162 VCC.n17 146.341
R144 VCC.n162 VCC.n16 146.341
R145 VCC.n168 VCC.n16 146.341
R146 VCC.n168 VCC.n11 146.341
R147 VCC.n277 VCC.n11 146.341
R148 VCC.n147 VCC.n28 146.341
R149 VCC.n147 VCC.n24 146.341
R150 VCC.n153 VCC.n24 146.341
R151 VCC.n154 VCC.n153 146.341
R152 VCC.n154 VCC.n3 146.341
R153 VCC.n4 VCC.n3 146.341
R154 VCC.n5 VCC.n4 146.341
R155 VCC.n166 VCC.n5 146.341
R156 VCC.n166 VCC.n8 146.341
R157 VCC.n279 VCC.n8 146.341
R158 VCC.n196 VCC.n9 99.5127
R159 VCC.n200 VCC.n198 99.5127
R160 VCC.n204 VCC.n189 99.5127
R161 VCC.n208 VCC.n206 99.5127
R162 VCC.n212 VCC.n187 99.5127
R163 VCC.n216 VCC.n214 99.5127
R164 VCC.n220 VCC.n185 99.5127
R165 VCC.n224 VCC.n222 99.5127
R166 VCC.n228 VCC.n183 99.5127
R167 VCC.n232 VCC.n230 99.5127
R168 VCC.n236 VCC.n181 99.5127
R169 VCC.n240 VCC.n238 99.5127
R170 VCC.n244 VCC.n179 99.5127
R171 VCC.n248 VCC.n246 99.5127
R172 VCC.n252 VCC.n177 99.5127
R173 VCC.n256 VCC.n254 99.5127
R174 VCC.n260 VCC.n175 99.5127
R175 VCC.n264 VCC.n262 99.5127
R176 VCC.n268 VCC.n173 99.5127
R177 VCC.n272 VCC.n270 99.5127
R178 VCC.n53 VCC.n52 99.5127
R179 VCC.n128 VCC.n52 99.5127
R180 VCC.n126 VCC.n125 99.5127
R181 VCC.n122 VCC.n121 99.5127
R182 VCC.n118 VCC.n117 99.5127
R183 VCC.n114 VCC.n113 99.5127
R184 VCC.n110 VCC.n109 99.5127
R185 VCC.n106 VCC.n105 99.5127
R186 VCC.n102 VCC.n101 99.5127
R187 VCC.n98 VCC.n97 99.5127
R188 VCC.n94 VCC.n93 99.5127
R189 VCC.n90 VCC.n89 99.5127
R190 VCC.n86 VCC.n85 99.5127
R191 VCC.n82 VCC.n81 99.5127
R192 VCC.n78 VCC.n77 99.5127
R193 VCC.n74 VCC.n73 99.5127
R194 VCC.n70 VCC.n69 99.5127
R195 VCC.n66 VCC.n65 99.5127
R196 VCC.n62 VCC.n61 99.5127
R197 VCC.n58 VCC.n57 99.5127
R198 VCC.n271 VCC.n10 72.8958
R199 VCC.n269 VCC.n10 72.8958
R200 VCC.n263 VCC.n10 72.8958
R201 VCC.n261 VCC.n10 72.8958
R202 VCC.n255 VCC.n10 72.8958
R203 VCC.n253 VCC.n10 72.8958
R204 VCC.n247 VCC.n10 72.8958
R205 VCC.n245 VCC.n10 72.8958
R206 VCC.n239 VCC.n10 72.8958
R207 VCC.n237 VCC.n10 72.8958
R208 VCC.n231 VCC.n10 72.8958
R209 VCC.n229 VCC.n10 72.8958
R210 VCC.n223 VCC.n10 72.8958
R211 VCC.n221 VCC.n10 72.8958
R212 VCC.n215 VCC.n10 72.8958
R213 VCC.n213 VCC.n10 72.8958
R214 VCC.n207 VCC.n10 72.8958
R215 VCC.n205 VCC.n10 72.8958
R216 VCC.n199 VCC.n10 72.8958
R217 VCC.n197 VCC.n10 72.8958
R218 VCC.n136 VCC.n135 72.8958
R219 VCC.n136 VCC.n33 72.8958
R220 VCC.n136 VCC.n34 72.8958
R221 VCC.n136 VCC.n35 72.8958
R222 VCC.n136 VCC.n36 72.8958
R223 VCC.n136 VCC.n37 72.8958
R224 VCC.n136 VCC.n38 72.8958
R225 VCC.n136 VCC.n39 72.8958
R226 VCC.n136 VCC.n40 72.8958
R227 VCC.n136 VCC.n41 72.8958
R228 VCC.n136 VCC.n42 72.8958
R229 VCC.n136 VCC.n43 72.8958
R230 VCC.n136 VCC.n44 72.8958
R231 VCC.n136 VCC.n45 72.8958
R232 VCC.n136 VCC.n46 72.8958
R233 VCC.n136 VCC.n47 72.8958
R234 VCC.n136 VCC.n48 72.8958
R235 VCC.n136 VCC.n49 72.8958
R236 VCC.n136 VCC.n50 72.8958
R237 VCC.n136 VCC.n51 72.8958
R238 VCC.n137 VCC.n136 56.3363
R239 VCC.n278 VCC.n10 56.3363
R240 VCC.n198 VCC.n197 39.2114
R241 VCC.n199 VCC.n189 39.2114
R242 VCC.n206 VCC.n205 39.2114
R243 VCC.n207 VCC.n187 39.2114
R244 VCC.n214 VCC.n213 39.2114
R245 VCC.n215 VCC.n185 39.2114
R246 VCC.n222 VCC.n221 39.2114
R247 VCC.n223 VCC.n183 39.2114
R248 VCC.n230 VCC.n229 39.2114
R249 VCC.n231 VCC.n181 39.2114
R250 VCC.n238 VCC.n237 39.2114
R251 VCC.n239 VCC.n179 39.2114
R252 VCC.n246 VCC.n245 39.2114
R253 VCC.n247 VCC.n177 39.2114
R254 VCC.n254 VCC.n253 39.2114
R255 VCC.n255 VCC.n175 39.2114
R256 VCC.n262 VCC.n261 39.2114
R257 VCC.n263 VCC.n173 39.2114
R258 VCC.n270 VCC.n269 39.2114
R259 VCC.n271 VCC.n12 39.2114
R260 VCC.n135 VCC.n134 39.2114
R261 VCC.n128 VCC.n33 39.2114
R262 VCC.n125 VCC.n34 39.2114
R263 VCC.n121 VCC.n35 39.2114
R264 VCC.n117 VCC.n36 39.2114
R265 VCC.n113 VCC.n37 39.2114
R266 VCC.n109 VCC.n38 39.2114
R267 VCC.n105 VCC.n39 39.2114
R268 VCC.n101 VCC.n40 39.2114
R269 VCC.n97 VCC.n41 39.2114
R270 VCC.n93 VCC.n42 39.2114
R271 VCC.n89 VCC.n43 39.2114
R272 VCC.n85 VCC.n44 39.2114
R273 VCC.n81 VCC.n45 39.2114
R274 VCC.n77 VCC.n46 39.2114
R275 VCC.n73 VCC.n47 39.2114
R276 VCC.n69 VCC.n48 39.2114
R277 VCC.n65 VCC.n49 39.2114
R278 VCC.n61 VCC.n50 39.2114
R279 VCC.n57 VCC.n51 39.2114
R280 VCC.n272 VCC.n271 39.2114
R281 VCC.n269 VCC.n268 39.2114
R282 VCC.n264 VCC.n263 39.2114
R283 VCC.n261 VCC.n260 39.2114
R284 VCC.n256 VCC.n255 39.2114
R285 VCC.n253 VCC.n252 39.2114
R286 VCC.n248 VCC.n247 39.2114
R287 VCC.n245 VCC.n244 39.2114
R288 VCC.n240 VCC.n239 39.2114
R289 VCC.n237 VCC.n236 39.2114
R290 VCC.n232 VCC.n231 39.2114
R291 VCC.n229 VCC.n228 39.2114
R292 VCC.n224 VCC.n223 39.2114
R293 VCC.n221 VCC.n220 39.2114
R294 VCC.n216 VCC.n215 39.2114
R295 VCC.n213 VCC.n212 39.2114
R296 VCC.n208 VCC.n207 39.2114
R297 VCC.n205 VCC.n204 39.2114
R298 VCC.n200 VCC.n199 39.2114
R299 VCC.n197 VCC.n196 39.2114
R300 VCC.n135 VCC.n53 39.2114
R301 VCC.n126 VCC.n33 39.2114
R302 VCC.n122 VCC.n34 39.2114
R303 VCC.n118 VCC.n35 39.2114
R304 VCC.n114 VCC.n36 39.2114
R305 VCC.n110 VCC.n37 39.2114
R306 VCC.n106 VCC.n38 39.2114
R307 VCC.n102 VCC.n39 39.2114
R308 VCC.n98 VCC.n40 39.2114
R309 VCC.n94 VCC.n41 39.2114
R310 VCC.n90 VCC.n42 39.2114
R311 VCC.n86 VCC.n43 39.2114
R312 VCC.n82 VCC.n44 39.2114
R313 VCC.n78 VCC.n45 39.2114
R314 VCC.n74 VCC.n46 39.2114
R315 VCC.n70 VCC.n47 39.2114
R316 VCC.n66 VCC.n48 39.2114
R317 VCC.n62 VCC.n49 39.2114
R318 VCC.n58 VCC.n50 39.2114
R319 VCC.n51 VCC.n32 39.2114
R320 VCC.n191 VCC.n7 31.2877
R321 VCC.n275 VCC.n274 31.2877
R322 VCC.n133 VCC.n26 31.2877
R323 VCC.n140 VCC.n31 31.2877
R324 VCC.n146 VCC.n145 29.6509
R325 VCC.n145 VCC.n22 29.6509
R326 VCC.n155 VCC.n22 29.6509
R327 VCC.n164 VCC.n163 29.6509
R328 VCC.n167 VCC.n164 29.6509
R329 VCC.n167 VCC.n165 29.6509
R330 VCC.n194 VCC.n193 29.2853
R331 VCC.n131 VCC.n55 29.2853
R332 VCC.n137 VCC.t5 21.3488
R333 VCC.n278 VCC.t1 21.3488
R334 VCC.t8 VCC.n23 20.7558
R335 VCC.n23 VCC.t9 20.7558
R336 VCC.n139 VCC.n30 19.3944
R337 VCC.n143 VCC.n30 19.3944
R338 VCC.n143 VCC.n20 19.3944
R339 VCC.n157 VCC.n20 19.3944
R340 VCC.n157 VCC.n18 19.3944
R341 VCC.n161 VCC.n18 19.3944
R342 VCC.n161 VCC.n15 19.3944
R343 VCC.n169 VCC.n15 19.3944
R344 VCC.n169 VCC.n13 19.3944
R345 VCC.n276 VCC.n13 19.3944
R346 VCC.n148 VCC.n27 19.3944
R347 VCC.n148 VCC.n25 19.3944
R348 VCC.n152 VCC.n25 19.3944
R349 VCC.n152 VCC.n2 19.3944
R350 VCC.n287 VCC.n2 19.3944
R351 VCC.n287 VCC.n286 19.3944
R352 VCC.n286 VCC.n285 19.3944
R353 VCC.n285 VCC.n6 19.3944
R354 VCC.n281 VCC.n6 19.3944
R355 VCC.n281 VCC.n280 19.3944
R356 VCC.n193 VCC.n192 13.5763
R357 VCC.n55 VCC.n54 13.5763
R358 VCC.n195 VCC.n191 10.6151
R359 VCC.n201 VCC.n190 10.6151
R360 VCC.n202 VCC.n201 10.6151
R361 VCC.n203 VCC.n202 10.6151
R362 VCC.n203 VCC.n188 10.6151
R363 VCC.n209 VCC.n188 10.6151
R364 VCC.n210 VCC.n209 10.6151
R365 VCC.n211 VCC.n210 10.6151
R366 VCC.n211 VCC.n186 10.6151
R367 VCC.n217 VCC.n186 10.6151
R368 VCC.n218 VCC.n217 10.6151
R369 VCC.n219 VCC.n218 10.6151
R370 VCC.n219 VCC.n184 10.6151
R371 VCC.n225 VCC.n184 10.6151
R372 VCC.n226 VCC.n225 10.6151
R373 VCC.n227 VCC.n226 10.6151
R374 VCC.n227 VCC.n182 10.6151
R375 VCC.n233 VCC.n182 10.6151
R376 VCC.n234 VCC.n233 10.6151
R377 VCC.n235 VCC.n234 10.6151
R378 VCC.n235 VCC.n180 10.6151
R379 VCC.n241 VCC.n180 10.6151
R380 VCC.n242 VCC.n241 10.6151
R381 VCC.n243 VCC.n242 10.6151
R382 VCC.n243 VCC.n178 10.6151
R383 VCC.n249 VCC.n178 10.6151
R384 VCC.n250 VCC.n249 10.6151
R385 VCC.n251 VCC.n250 10.6151
R386 VCC.n251 VCC.n176 10.6151
R387 VCC.n257 VCC.n176 10.6151
R388 VCC.n258 VCC.n257 10.6151
R389 VCC.n259 VCC.n258 10.6151
R390 VCC.n259 VCC.n174 10.6151
R391 VCC.n265 VCC.n174 10.6151
R392 VCC.n266 VCC.n265 10.6151
R393 VCC.n267 VCC.n266 10.6151
R394 VCC.n267 VCC.n172 10.6151
R395 VCC.n273 VCC.n172 10.6151
R396 VCC.n274 VCC.n273 10.6151
R397 VCC.n133 VCC.n132 10.6151
R398 VCC.n130 VCC.n129 10.6151
R399 VCC.n129 VCC.n127 10.6151
R400 VCC.n127 VCC.n124 10.6151
R401 VCC.n124 VCC.n123 10.6151
R402 VCC.n123 VCC.n120 10.6151
R403 VCC.n120 VCC.n119 10.6151
R404 VCC.n119 VCC.n116 10.6151
R405 VCC.n116 VCC.n115 10.6151
R406 VCC.n115 VCC.n112 10.6151
R407 VCC.n112 VCC.n111 10.6151
R408 VCC.n111 VCC.n108 10.6151
R409 VCC.n108 VCC.n107 10.6151
R410 VCC.n107 VCC.n104 10.6151
R411 VCC.n104 VCC.n103 10.6151
R412 VCC.n103 VCC.n100 10.6151
R413 VCC.n100 VCC.n99 10.6151
R414 VCC.n99 VCC.n96 10.6151
R415 VCC.n96 VCC.n95 10.6151
R416 VCC.n95 VCC.n92 10.6151
R417 VCC.n92 VCC.n91 10.6151
R418 VCC.n91 VCC.n88 10.6151
R419 VCC.n88 VCC.n87 10.6151
R420 VCC.n87 VCC.n84 10.6151
R421 VCC.n84 VCC.n83 10.6151
R422 VCC.n83 VCC.n80 10.6151
R423 VCC.n80 VCC.n79 10.6151
R424 VCC.n79 VCC.n76 10.6151
R425 VCC.n76 VCC.n75 10.6151
R426 VCC.n75 VCC.n72 10.6151
R427 VCC.n72 VCC.n71 10.6151
R428 VCC.n71 VCC.n68 10.6151
R429 VCC.n68 VCC.n67 10.6151
R430 VCC.n67 VCC.n64 10.6151
R431 VCC.n64 VCC.n63 10.6151
R432 VCC.n63 VCC.n60 10.6151
R433 VCC.n60 VCC.n59 10.6151
R434 VCC.n59 VCC.n56 10.6151
R435 VCC.n56 VCC.n31 10.6151
R436 VCC.n286 VCC.n0 9.3005
R437 VCC.n285 VCC.n284 9.3005
R438 VCC.n283 VCC.n6 9.3005
R439 VCC.n282 VCC.n281 9.3005
R440 VCC.n280 VCC.n7 9.3005
R441 VCC.n141 VCC.n30 9.3005
R442 VCC.n143 VCC.n142 9.3005
R443 VCC.n20 VCC.n19 9.3005
R444 VCC.n158 VCC.n157 9.3005
R445 VCC.n159 VCC.n18 9.3005
R446 VCC.n161 VCC.n160 9.3005
R447 VCC.n15 VCC.n14 9.3005
R448 VCC.n170 VCC.n169 9.3005
R449 VCC.n171 VCC.n13 9.3005
R450 VCC.n276 VCC.n275 9.3005
R451 VCC.n140 VCC.n139 9.3005
R452 VCC.n27 VCC.n26 9.3005
R453 VCC.n149 VCC.n148 9.3005
R454 VCC.n150 VCC.n25 9.3005
R455 VCC.n152 VCC.n151 9.3005
R456 VCC.n2 VCC.n1 9.3005
R457 VCC.n288 VCC.n287 9.3005
R458 VCC.n155 VCC.t8 8.89563
R459 VCC.n163 VCC.t9 8.89563
R460 VCC.n146 VCC.t5 8.30262
R461 VCC.n165 VCC.t1 8.30262
R462 VCC.n194 VCC.n190 5.62001
R463 VCC.n131 VCC.n130 5.62001
R464 VCC.n195 VCC.n194 4.99562
R465 VCC.n132 VCC.n131 4.99562
R466 VCC.n284 VCC.n0 0.152939
R467 VCC.n284 VCC.n283 0.152939
R468 VCC.n283 VCC.n282 0.152939
R469 VCC.n282 VCC.n7 0.152939
R470 VCC.n141 VCC.n140 0.152939
R471 VCC.n142 VCC.n141 0.152939
R472 VCC.n142 VCC.n19 0.152939
R473 VCC.n158 VCC.n19 0.152939
R474 VCC.n159 VCC.n158 0.152939
R475 VCC.n160 VCC.n159 0.152939
R476 VCC.n160 VCC.n14 0.152939
R477 VCC.n170 VCC.n14 0.152939
R478 VCC.n171 VCC.n170 0.152939
R479 VCC.n275 VCC.n171 0.152939
R480 VCC.n149 VCC.n26 0.152939
R481 VCC.n150 VCC.n149 0.152939
R482 VCC.n151 VCC.n150 0.152939
R483 VCC.n151 VCC.n1 0.152939
R484 VCC.n288 VCC.n1 0.13922
R485 VCC VCC.n0 0.0767195
R486 VCC VCC.n288 0.063
R487 VGN.n0 VGN.t0 150.111
R488 VGN.n0 VGN.t1 149.555
R489 VGN VGN.n0 6.84834
R490 VIN.n64 VIN.n63 756.745
R491 VIN.n129 VIN.n128 756.745
R492 VIN.n23 VIN.n22 585
R493 VIN.n25 VIN.n24 585
R494 VIN.n18 VIN.n17 585
R495 VIN.n31 VIN.n30 585
R496 VIN.n33 VIN.n32 585
R497 VIN.n14 VIN.n13 585
R498 VIN.n39 VIN.n38 585
R499 VIN.n41 VIN.n40 585
R500 VIN.n10 VIN.n9 585
R501 VIN.n47 VIN.n46 585
R502 VIN.n49 VIN.n48 585
R503 VIN.n6 VIN.n5 585
R504 VIN.n55 VIN.n54 585
R505 VIN.n57 VIN.n56 585
R506 VIN.n2 VIN.n1 585
R507 VIN.n63 VIN.n62 585
R508 VIN.n88 VIN.n87 585
R509 VIN.n90 VIN.n89 585
R510 VIN.n83 VIN.n82 585
R511 VIN.n96 VIN.n95 585
R512 VIN.n98 VIN.n97 585
R513 VIN.n79 VIN.n78 585
R514 VIN.n104 VIN.n103 585
R515 VIN.n106 VIN.n105 585
R516 VIN.n75 VIN.n74 585
R517 VIN.n112 VIN.n111 585
R518 VIN.n114 VIN.n113 585
R519 VIN.n71 VIN.n70 585
R520 VIN.n120 VIN.n119 585
R521 VIN.n122 VIN.n121 585
R522 VIN.n67 VIN.n66 585
R523 VIN.n128 VIN.n127 585
R524 VIN.n21 VIN.t1 327.466
R525 VIN.n86 VIN.t0 327.466
R526 VIN.n179 VIN.n131 289.615
R527 VIN.n232 VIN.n184 289.615
R528 VIN.n180 VIN.n179 185
R529 VIN.n178 VIN.n177 185
R530 VIN.n135 VIN.n134 185
R531 VIN.n172 VIN.n171 185
R532 VIN.n170 VIN.n137 185
R533 VIN.n169 VIN.n168 185
R534 VIN.n140 VIN.n138 185
R535 VIN.n163 VIN.n162 185
R536 VIN.n161 VIN.n160 185
R537 VIN.n144 VIN.n143 185
R538 VIN.n155 VIN.n154 185
R539 VIN.n153 VIN.n152 185
R540 VIN.n148 VIN.n147 185
R541 VIN.n233 VIN.n232 185
R542 VIN.n231 VIN.n230 185
R543 VIN.n188 VIN.n187 185
R544 VIN.n225 VIN.n224 185
R545 VIN.n223 VIN.n190 185
R546 VIN.n222 VIN.n221 185
R547 VIN.n193 VIN.n191 185
R548 VIN.n216 VIN.n215 185
R549 VIN.n214 VIN.n213 185
R550 VIN.n197 VIN.n196 185
R551 VIN.n208 VIN.n207 185
R552 VIN.n206 VIN.n205 185
R553 VIN.n201 VIN.n200 185
R554 VIN.n24 VIN.n23 171.744
R555 VIN.n24 VIN.n17 171.744
R556 VIN.n31 VIN.n17 171.744
R557 VIN.n32 VIN.n31 171.744
R558 VIN.n32 VIN.n13 171.744
R559 VIN.n39 VIN.n13 171.744
R560 VIN.n40 VIN.n39 171.744
R561 VIN.n40 VIN.n9 171.744
R562 VIN.n47 VIN.n9 171.744
R563 VIN.n48 VIN.n47 171.744
R564 VIN.n48 VIN.n5 171.744
R565 VIN.n55 VIN.n5 171.744
R566 VIN.n56 VIN.n55 171.744
R567 VIN.n56 VIN.n1 171.744
R568 VIN.n63 VIN.n1 171.744
R569 VIN.n89 VIN.n88 171.744
R570 VIN.n89 VIN.n82 171.744
R571 VIN.n96 VIN.n82 171.744
R572 VIN.n97 VIN.n96 171.744
R573 VIN.n97 VIN.n78 171.744
R574 VIN.n104 VIN.n78 171.744
R575 VIN.n105 VIN.n104 171.744
R576 VIN.n105 VIN.n74 171.744
R577 VIN.n112 VIN.n74 171.744
R578 VIN.n113 VIN.n112 171.744
R579 VIN.n113 VIN.n70 171.744
R580 VIN.n120 VIN.n70 171.744
R581 VIN.n121 VIN.n120 171.744
R582 VIN.n121 VIN.n66 171.744
R583 VIN.n128 VIN.n66 171.744
R584 VIN.n149 VIN.t2 149.524
R585 VIN.n202 VIN.t3 149.524
R586 VIN.n179 VIN.n178 104.615
R587 VIN.n178 VIN.n134 104.615
R588 VIN.n171 VIN.n134 104.615
R589 VIN.n171 VIN.n170 104.615
R590 VIN.n170 VIN.n169 104.615
R591 VIN.n169 VIN.n138 104.615
R592 VIN.n162 VIN.n138 104.615
R593 VIN.n162 VIN.n161 104.615
R594 VIN.n161 VIN.n143 104.615
R595 VIN.n154 VIN.n143 104.615
R596 VIN.n154 VIN.n153 104.615
R597 VIN.n153 VIN.n147 104.615
R598 VIN.n232 VIN.n231 104.615
R599 VIN.n231 VIN.n187 104.615
R600 VIN.n224 VIN.n187 104.615
R601 VIN.n224 VIN.n223 104.615
R602 VIN.n223 VIN.n222 104.615
R603 VIN.n222 VIN.n191 104.615
R604 VIN.n215 VIN.n191 104.615
R605 VIN.n215 VIN.n214 104.615
R606 VIN.n214 VIN.n196 104.615
R607 VIN.n207 VIN.n196 104.615
R608 VIN.n207 VIN.n206 104.615
R609 VIN.n206 VIN.n200 104.615
R610 VIN.n23 VIN.t1 85.8723
R611 VIN.n88 VIN.t0 85.8723
R612 VIN.t2 VIN.n147 52.3082
R613 VIN.t3 VIN.n200 52.3082
R614 VIN.n237 VIN.n183 37.0298
R615 VIN.n237 VIN.n236 34.9005
R616 VIN.n130 VIN.n64 34.5342
R617 VIN.n130 VIN.n129 33.9308
R618 VIN.n22 VIN.n21 16.3895
R619 VIN.n87 VIN.n86 16.3895
R620 VIN.n172 VIN.n137 13.1884
R621 VIN.n225 VIN.n190 13.1884
R622 VIN.n173 VIN.n135 12.8005
R623 VIN.n168 VIN.n139 12.8005
R624 VIN.n226 VIN.n188 12.8005
R625 VIN.n221 VIN.n192 12.8005
R626 VIN.n25 VIN.n20 12.8005
R627 VIN.n90 VIN.n85 12.8005
R628 VIN VIN.n130 12.132
R629 VIN.n177 VIN.n176 12.0247
R630 VIN.n167 VIN.n140 12.0247
R631 VIN.n230 VIN.n229 12.0247
R632 VIN.n220 VIN.n193 12.0247
R633 VIN.n26 VIN.n18 12.0247
R634 VIN.n62 VIN.n0 12.0247
R635 VIN.n91 VIN.n83 12.0247
R636 VIN.n127 VIN.n65 12.0247
R637 VIN.n180 VIN.n133 11.249
R638 VIN.n164 VIN.n163 11.249
R639 VIN.n233 VIN.n186 11.249
R640 VIN.n217 VIN.n216 11.249
R641 VIN.n30 VIN.n29 11.249
R642 VIN.n61 VIN.n2 11.249
R643 VIN.n95 VIN.n94 11.249
R644 VIN.n126 VIN.n67 11.249
R645 VIN.n181 VIN.n131 10.4732
R646 VIN.n160 VIN.n142 10.4732
R647 VIN.n234 VIN.n184 10.4732
R648 VIN.n213 VIN.n195 10.4732
R649 VIN.n33 VIN.n16 10.4732
R650 VIN.n58 VIN.n57 10.4732
R651 VIN.n98 VIN.n81 10.4732
R652 VIN.n123 VIN.n122 10.4732
R653 VIN.n149 VIN.n148 10.2747
R654 VIN.n202 VIN.n201 10.2747
R655 VIN.n159 VIN.n144 9.69747
R656 VIN.n212 VIN.n197 9.69747
R657 VIN.n34 VIN.n14 9.69747
R658 VIN.n54 VIN.n4 9.69747
R659 VIN.n99 VIN.n79 9.69747
R660 VIN.n119 VIN.n69 9.69747
R661 VIN.n183 VIN.n182 9.45567
R662 VIN.n236 VIN.n235 9.45567
R663 VIN.n60 VIN.n0 9.45567
R664 VIN.n125 VIN.n65 9.45567
R665 VIN.n151 VIN.n150 9.3005
R666 VIN.n146 VIN.n145 9.3005
R667 VIN.n157 VIN.n156 9.3005
R668 VIN.n159 VIN.n158 9.3005
R669 VIN.n142 VIN.n141 9.3005
R670 VIN.n165 VIN.n164 9.3005
R671 VIN.n167 VIN.n166 9.3005
R672 VIN.n139 VIN.n136 9.3005
R673 VIN.n182 VIN.n181 9.3005
R674 VIN.n133 VIN.n132 9.3005
R675 VIN.n176 VIN.n175 9.3005
R676 VIN.n174 VIN.n173 9.3005
R677 VIN.n204 VIN.n203 9.3005
R678 VIN.n199 VIN.n198 9.3005
R679 VIN.n210 VIN.n209 9.3005
R680 VIN.n212 VIN.n211 9.3005
R681 VIN.n195 VIN.n194 9.3005
R682 VIN.n218 VIN.n217 9.3005
R683 VIN.n220 VIN.n219 9.3005
R684 VIN.n192 VIN.n189 9.3005
R685 VIN.n235 VIN.n234 9.3005
R686 VIN.n186 VIN.n185 9.3005
R687 VIN.n229 VIN.n228 9.3005
R688 VIN.n227 VIN.n226 9.3005
R689 VIN.n20 VIN.n19 9.3005
R690 VIN.n27 VIN.n26 9.3005
R691 VIN.n29 VIN.n28 9.3005
R692 VIN.n16 VIN.n15 9.3005
R693 VIN.n35 VIN.n34 9.3005
R694 VIN.n37 VIN.n36 9.3005
R695 VIN.n12 VIN.n11 9.3005
R696 VIN.n43 VIN.n42 9.3005
R697 VIN.n45 VIN.n44 9.3005
R698 VIN.n8 VIN.n7 9.3005
R699 VIN.n51 VIN.n50 9.3005
R700 VIN.n53 VIN.n52 9.3005
R701 VIN.n4 VIN.n3 9.3005
R702 VIN.n59 VIN.n58 9.3005
R703 VIN.n61 VIN.n60 9.3005
R704 VIN.n110 VIN.n109 9.3005
R705 VIN.n73 VIN.n72 9.3005
R706 VIN.n116 VIN.n115 9.3005
R707 VIN.n118 VIN.n117 9.3005
R708 VIN.n69 VIN.n68 9.3005
R709 VIN.n124 VIN.n123 9.3005
R710 VIN.n126 VIN.n125 9.3005
R711 VIN.n77 VIN.n76 9.3005
R712 VIN.n102 VIN.n101 9.3005
R713 VIN.n100 VIN.n99 9.3005
R714 VIN.n81 VIN.n80 9.3005
R715 VIN.n94 VIN.n93 9.3005
R716 VIN.n92 VIN.n91 9.3005
R717 VIN.n85 VIN.n84 9.3005
R718 VIN.n108 VIN.n107 9.3005
R719 VIN.n156 VIN.n155 8.92171
R720 VIN.n209 VIN.n208 8.92171
R721 VIN.n38 VIN.n37 8.92171
R722 VIN.n53 VIN.n6 8.92171
R723 VIN.n103 VIN.n102 8.92171
R724 VIN.n118 VIN.n71 8.92171
R725 VIN.n152 VIN.n146 8.14595
R726 VIN.n205 VIN.n199 8.14595
R727 VIN.n41 VIN.n12 8.14595
R728 VIN.n50 VIN.n49 8.14595
R729 VIN.n106 VIN.n77 8.14595
R730 VIN.n115 VIN.n114 8.14595
R731 VIN.n151 VIN.n148 7.3702
R732 VIN.n204 VIN.n201 7.3702
R733 VIN.n42 VIN.n10 7.3702
R734 VIN.n46 VIN.n8 7.3702
R735 VIN.n107 VIN.n75 7.3702
R736 VIN.n111 VIN.n73 7.3702
R737 VIN.n45 VIN.n10 6.59444
R738 VIN.n46 VIN.n45 6.59444
R739 VIN.n110 VIN.n75 6.59444
R740 VIN.n111 VIN.n110 6.59444
R741 VIN.n152 VIN.n151 5.81868
R742 VIN.n205 VIN.n204 5.81868
R743 VIN.n42 VIN.n41 5.81868
R744 VIN.n49 VIN.n8 5.81868
R745 VIN.n107 VIN.n106 5.81868
R746 VIN.n114 VIN.n73 5.81868
R747 VIN.n155 VIN.n146 5.04292
R748 VIN.n208 VIN.n199 5.04292
R749 VIN.n38 VIN.n12 5.04292
R750 VIN.n50 VIN.n6 5.04292
R751 VIN.n103 VIN.n77 5.04292
R752 VIN.n115 VIN.n71 5.04292
R753 VIN.n156 VIN.n144 4.26717
R754 VIN.n209 VIN.n197 4.26717
R755 VIN.n37 VIN.n14 4.26717
R756 VIN.n54 VIN.n53 4.26717
R757 VIN.n102 VIN.n79 4.26717
R758 VIN.n119 VIN.n118 4.26717
R759 VIN.n21 VIN.n19 3.70982
R760 VIN.n86 VIN.n84 3.70982
R761 VIN.n183 VIN.n131 3.49141
R762 VIN.n160 VIN.n159 3.49141
R763 VIN.n236 VIN.n184 3.49141
R764 VIN.n213 VIN.n212 3.49141
R765 VIN.n34 VIN.n33 3.49141
R766 VIN.n57 VIN.n4 3.49141
R767 VIN.n99 VIN.n98 3.49141
R768 VIN.n122 VIN.n69 3.49141
R769 VIN.n150 VIN.n149 2.84303
R770 VIN.n203 VIN.n202 2.84303
R771 VIN.n181 VIN.n180 2.71565
R772 VIN.n163 VIN.n142 2.71565
R773 VIN.n234 VIN.n233 2.71565
R774 VIN.n216 VIN.n195 2.71565
R775 VIN.n30 VIN.n16 2.71565
R776 VIN.n58 VIN.n2 2.71565
R777 VIN.n95 VIN.n81 2.71565
R778 VIN.n123 VIN.n67 2.71565
R779 VIN.n177 VIN.n133 1.93989
R780 VIN.n164 VIN.n140 1.93989
R781 VIN.n230 VIN.n186 1.93989
R782 VIN.n217 VIN.n193 1.93989
R783 VIN.n29 VIN.n18 1.93989
R784 VIN.n62 VIN.n61 1.93989
R785 VIN.n94 VIN.n83 1.93989
R786 VIN.n127 VIN.n126 1.93989
R787 VIN.n176 VIN.n135 1.16414
R788 VIN.n168 VIN.n167 1.16414
R789 VIN.n229 VIN.n188 1.16414
R790 VIN.n221 VIN.n220 1.16414
R791 VIN.n26 VIN.n25 1.16414
R792 VIN.n64 VIN.n0 1.16414
R793 VIN.n91 VIN.n90 1.16414
R794 VIN.n129 VIN.n65 1.16414
R795 VIN.n173 VIN.n172 0.388379
R796 VIN.n139 VIN.n137 0.388379
R797 VIN.n226 VIN.n225 0.388379
R798 VIN.n192 VIN.n190 0.388379
R799 VIN.n22 VIN.n20 0.388379
R800 VIN.n87 VIN.n85 0.388379
R801 VIN.n182 VIN.n132 0.155672
R802 VIN.n175 VIN.n132 0.155672
R803 VIN.n175 VIN.n174 0.155672
R804 VIN.n174 VIN.n136 0.155672
R805 VIN.n166 VIN.n136 0.155672
R806 VIN.n166 VIN.n165 0.155672
R807 VIN.n165 VIN.n141 0.155672
R808 VIN.n158 VIN.n141 0.155672
R809 VIN.n158 VIN.n157 0.155672
R810 VIN.n157 VIN.n145 0.155672
R811 VIN.n150 VIN.n145 0.155672
R812 VIN.n235 VIN.n185 0.155672
R813 VIN.n228 VIN.n185 0.155672
R814 VIN.n228 VIN.n227 0.155672
R815 VIN.n227 VIN.n189 0.155672
R816 VIN.n219 VIN.n189 0.155672
R817 VIN.n219 VIN.n218 0.155672
R818 VIN.n218 VIN.n194 0.155672
R819 VIN.n211 VIN.n194 0.155672
R820 VIN.n211 VIN.n210 0.155672
R821 VIN.n210 VIN.n198 0.155672
R822 VIN.n203 VIN.n198 0.155672
R823 VIN.n27 VIN.n19 0.155672
R824 VIN.n28 VIN.n27 0.155672
R825 VIN.n28 VIN.n15 0.155672
R826 VIN.n35 VIN.n15 0.155672
R827 VIN.n36 VIN.n35 0.155672
R828 VIN.n36 VIN.n11 0.155672
R829 VIN.n43 VIN.n11 0.155672
R830 VIN.n44 VIN.n43 0.155672
R831 VIN.n44 VIN.n7 0.155672
R832 VIN.n51 VIN.n7 0.155672
R833 VIN.n52 VIN.n51 0.155672
R834 VIN.n52 VIN.n3 0.155672
R835 VIN.n59 VIN.n3 0.155672
R836 VIN.n60 VIN.n59 0.155672
R837 VIN.n92 VIN.n84 0.155672
R838 VIN.n93 VIN.n92 0.155672
R839 VIN.n93 VIN.n80 0.155672
R840 VIN.n100 VIN.n80 0.155672
R841 VIN.n101 VIN.n100 0.155672
R842 VIN.n101 VIN.n76 0.155672
R843 VIN.n108 VIN.n76 0.155672
R844 VIN.n109 VIN.n108 0.155672
R845 VIN.n109 VIN.n72 0.155672
R846 VIN.n116 VIN.n72 0.155672
R847 VIN.n117 VIN.n116 0.155672
R848 VIN.n117 VIN.n68 0.155672
R849 VIN.n124 VIN.n68 0.155672
R850 VIN.n125 VIN.n124 0.155672
R851 VIN VIN.n237 0.00481034
R852 VOUT VOUT.n1 77.9438
R853 VOUT VOUT.n0 76.7474
R854 VOUT.n0 VOUT.t0 2.72972
R855 VOUT.n0 VOUT.t1 2.72972
R856 VOUT.n1 VOUT.t2 1.9609
R857 VOUT.n1 VOUT.t3 1.9609
R858 VSS.n176 VSS.n80 610.22
R859 VSS.n104 VSS.n77 610.22
R860 VSS.n351 VSS.n23 610.22
R861 VSS.n353 VSS.n19 610.22
R862 VSS.n81 VSS.n80 585
R863 VSS.n80 VSS.n78 585
R864 VSS.n181 VSS.n180 585
R865 VSS.n182 VSS.n181 585
R866 VSS.n72 VSS.n71 585
R867 VSS.n79 VSS.n72 585
R868 VSS.n192 VSS.n191 585
R869 VSS.n191 VSS.n190 585
R870 VSS.n69 VSS.n68 585
R871 VSS.n68 VSS.n67 585
R872 VSS.n197 VSS.n196 585
R873 VSS.n198 VSS.n197 585
R874 VSS.n60 VSS.n59 585
R875 VSS.n61 VSS.n60 585
R876 VSS.n208 VSS.n207 585
R877 VSS.n207 VSS.n206 585
R878 VSS.n57 VSS.n56 585
R879 VSS.n56 VSS.n54 585
R880 VSS.n213 VSS.n212 585
R881 VSS.n214 VSS.n213 585
R882 VSS.n47 VSS.n46 585
R883 VSS.n55 VSS.n47 585
R884 VSS.n224 VSS.n223 585
R885 VSS.n223 VSS.n222 585
R886 VSS.n44 VSS.n43 585
R887 VSS.n43 VSS.n42 585
R888 VSS.n229 VSS.n228 585
R889 VSS.n230 VSS.n229 585
R890 VSS.n41 VSS.n40 585
R891 VSS.n231 VSS.n41 585
R892 VSS.n234 VSS.n233 585
R893 VSS.n233 VSS.n232 585
R894 VSS.n38 VSS.n37 585
R895 VSS.n37 VSS.n36 585
R896 VSS.n239 VSS.n238 585
R897 VSS.n240 VSS.n239 585
R898 VSS.n34 VSS.n33 585
R899 VSS.n241 VSS.n34 585
R900 VSS.n244 VSS.n243 585
R901 VSS.n243 VSS.n242 585
R902 VSS.n31 VSS.n30 585
R903 VSS.n30 VSS.n29 585
R904 VSS.n249 VSS.n248 585
R905 VSS.n250 VSS.n249 585
R906 VSS.n27 VSS.n26 585
R907 VSS.n251 VSS.n27 585
R908 VSS.n254 VSS.n253 585
R909 VSS.n253 VSS.n252 585
R910 VSS.n24 VSS.n22 585
R911 VSS.n22 VSS.n20 585
R912 VSS.n351 VSS.n350 585
R913 VSS.n352 VSS.n351 585
R914 VSS.n354 VSS.n353 585
R915 VSS.n353 VSS.n352 585
R916 VSS.n18 VSS.n16 585
R917 VSS.n20 VSS.n18 585
R918 VSS.n358 VSS.n15 585
R919 VSS.n252 VSS.n15 585
R920 VSS.n359 VSS.n14 585
R921 VSS.n251 VSS.n14 585
R922 VSS.n360 VSS.n13 585
R923 VSS.n250 VSS.n13 585
R924 VSS.n28 VSS.n11 585
R925 VSS.n29 VSS.n28 585
R926 VSS.n364 VSS.n10 585
R927 VSS.n242 VSS.n10 585
R928 VSS.n365 VSS.n9 585
R929 VSS.n241 VSS.n9 585
R930 VSS.n366 VSS.n8 585
R931 VSS.n240 VSS.n8 585
R932 VSS.n35 VSS.n6 585
R933 VSS.n36 VSS.n35 585
R934 VSS.n370 VSS.n5 585
R935 VSS.n232 VSS.n5 585
R936 VSS.n371 VSS.n4 585
R937 VSS.n231 VSS.n4 585
R938 VSS.n372 VSS.n3 585
R939 VSS.n230 VSS.n3 585
R940 VSS.n49 VSS.n2 585
R941 VSS.n49 VSS.n42 585
R942 VSS.n221 VSS.n220 585
R943 VSS.n222 VSS.n221 585
R944 VSS.n50 VSS.n48 585
R945 VSS.n55 VSS.n48 585
R946 VSS.n216 VSS.n215 585
R947 VSS.n215 VSS.n214 585
R948 VSS.n53 VSS.n52 585
R949 VSS.n54 VSS.n53 585
R950 VSS.n205 VSS.n204 585
R951 VSS.n206 VSS.n205 585
R952 VSS.n63 VSS.n62 585
R953 VSS.n62 VSS.n61 585
R954 VSS.n200 VSS.n199 585
R955 VSS.n199 VSS.n198 585
R956 VSS.n66 VSS.n65 585
R957 VSS.n67 VSS.n66 585
R958 VSS.n189 VSS.n188 585
R959 VSS.n190 VSS.n189 585
R960 VSS.n74 VSS.n73 585
R961 VSS.n79 VSS.n73 585
R962 VSS.n184 VSS.n183 585
R963 VSS.n183 VSS.n182 585
R964 VSS.n77 VSS.n76 585
R965 VSS.n78 VSS.n77 585
R966 VSS.n19 VSS.n17 585
R967 VSS.n286 VSS.n283 585
R968 VSS.n288 VSS.n287 585
R969 VSS.n290 VSS.n280 585
R970 VSS.n292 VSS.n291 585
R971 VSS.n294 VSS.n278 585
R972 VSS.n296 VSS.n295 585
R973 VSS.n297 VSS.n277 585
R974 VSS.n299 VSS.n298 585
R975 VSS.n301 VSS.n275 585
R976 VSS.n303 VSS.n302 585
R977 VSS.n304 VSS.n274 585
R978 VSS.n306 VSS.n305 585
R979 VSS.n308 VSS.n272 585
R980 VSS.n310 VSS.n309 585
R981 VSS.n311 VSS.n271 585
R982 VSS.n313 VSS.n312 585
R983 VSS.n315 VSS.n269 585
R984 VSS.n317 VSS.n316 585
R985 VSS.n318 VSS.n268 585
R986 VSS.n320 VSS.n319 585
R987 VSS.n322 VSS.n266 585
R988 VSS.n324 VSS.n323 585
R989 VSS.n325 VSS.n265 585
R990 VSS.n327 VSS.n326 585
R991 VSS.n329 VSS.n263 585
R992 VSS.n331 VSS.n330 585
R993 VSS.n332 VSS.n262 585
R994 VSS.n334 VSS.n333 585
R995 VSS.n336 VSS.n260 585
R996 VSS.n338 VSS.n337 585
R997 VSS.n339 VSS.n259 585
R998 VSS.n341 VSS.n340 585
R999 VSS.n343 VSS.n258 585
R1000 VSS.n344 VSS.n257 585
R1001 VSS.n347 VSS.n346 585
R1002 VSS.n348 VSS.n23 585
R1003 VSS.n23 VSS.n21 585
R1004 VSS.n177 VSS.n176 585
R1005 VSS.n83 VSS.n82 585
R1006 VSS.n173 VSS.n172 585
R1007 VSS.n174 VSS.n173 585
R1008 VSS.n171 VSS.n101 585
R1009 VSS.n170 VSS.n169 585
R1010 VSS.n168 VSS.n167 585
R1011 VSS.n166 VSS.n165 585
R1012 VSS.n164 VSS.n163 585
R1013 VSS.n162 VSS.n161 585
R1014 VSS.n160 VSS.n159 585