* NGSPICE file created from diff_pair_sample_0554.ext - technology: sky130A

.subckt diff_pair_sample_0554 VTAIL VN VP B VDD2 VDD1
X0 VTAIL.t14 VN.t0 VDD2.t2 w_n2550_n2858# sky130_fd_pr__pfet_01v8 ad=3.6855 pd=19.68 as=1.55925 ps=9.78 w=9.45 l=1.25
X1 VTAIL.t5 VP.t0 VDD1.t7 w_n2550_n2858# sky130_fd_pr__pfet_01v8 ad=1.55925 pd=9.78 as=1.55925 ps=9.78 w=9.45 l=1.25
X2 VDD2.t1 VN.t1 VTAIL.t13 w_n2550_n2858# sky130_fd_pr__pfet_01v8 ad=1.55925 pd=9.78 as=1.55925 ps=9.78 w=9.45 l=1.25
X3 VDD1.t6 VP.t1 VTAIL.t15 w_n2550_n2858# sky130_fd_pr__pfet_01v8 ad=1.55925 pd=9.78 as=3.6855 ps=19.68 w=9.45 l=1.25
X4 VTAIL.t12 VN.t2 VDD2.t7 w_n2550_n2858# sky130_fd_pr__pfet_01v8 ad=1.55925 pd=9.78 as=1.55925 ps=9.78 w=9.45 l=1.25
X5 VTAIL.t6 VP.t2 VDD1.t5 w_n2550_n2858# sky130_fd_pr__pfet_01v8 ad=1.55925 pd=9.78 as=1.55925 ps=9.78 w=9.45 l=1.25
X6 VDD2.t5 VN.t3 VTAIL.t11 w_n2550_n2858# sky130_fd_pr__pfet_01v8 ad=1.55925 pd=9.78 as=3.6855 ps=19.68 w=9.45 l=1.25
X7 VTAIL.t10 VN.t4 VDD2.t0 w_n2550_n2858# sky130_fd_pr__pfet_01v8 ad=3.6855 pd=19.68 as=1.55925 ps=9.78 w=9.45 l=1.25
X8 VTAIL.t3 VP.t3 VDD1.t4 w_n2550_n2858# sky130_fd_pr__pfet_01v8 ad=3.6855 pd=19.68 as=1.55925 ps=9.78 w=9.45 l=1.25
X9 VDD2.t3 VN.t5 VTAIL.t9 w_n2550_n2858# sky130_fd_pr__pfet_01v8 ad=1.55925 pd=9.78 as=1.55925 ps=9.78 w=9.45 l=1.25
X10 VDD1.t3 VP.t4 VTAIL.t1 w_n2550_n2858# sky130_fd_pr__pfet_01v8 ad=1.55925 pd=9.78 as=3.6855 ps=19.68 w=9.45 l=1.25
X11 VDD2.t6 VN.t6 VTAIL.t8 w_n2550_n2858# sky130_fd_pr__pfet_01v8 ad=1.55925 pd=9.78 as=3.6855 ps=19.68 w=9.45 l=1.25
X12 VDD1.t2 VP.t5 VTAIL.t2 w_n2550_n2858# sky130_fd_pr__pfet_01v8 ad=1.55925 pd=9.78 as=1.55925 ps=9.78 w=9.45 l=1.25
X13 VDD1.t1 VP.t6 VTAIL.t4 w_n2550_n2858# sky130_fd_pr__pfet_01v8 ad=1.55925 pd=9.78 as=1.55925 ps=9.78 w=9.45 l=1.25
X14 B.t11 B.t9 B.t10 w_n2550_n2858# sky130_fd_pr__pfet_01v8 ad=3.6855 pd=19.68 as=0 ps=0 w=9.45 l=1.25
X15 VTAIL.t7 VN.t7 VDD2.t4 w_n2550_n2858# sky130_fd_pr__pfet_01v8 ad=1.55925 pd=9.78 as=1.55925 ps=9.78 w=9.45 l=1.25
X16 B.t8 B.t6 B.t7 w_n2550_n2858# sky130_fd_pr__pfet_01v8 ad=3.6855 pd=19.68 as=0 ps=0 w=9.45 l=1.25
X17 B.t5 B.t3 B.t4 w_n2550_n2858# sky130_fd_pr__pfet_01v8 ad=3.6855 pd=19.68 as=0 ps=0 w=9.45 l=1.25
X18 VTAIL.t0 VP.t7 VDD1.t0 w_n2550_n2858# sky130_fd_pr__pfet_01v8 ad=3.6855 pd=19.68 as=1.55925 ps=9.78 w=9.45 l=1.25
X19 B.t2 B.t0 B.t1 w_n2550_n2858# sky130_fd_pr__pfet_01v8 ad=3.6855 pd=19.68 as=0 ps=0 w=9.45 l=1.25
R0 VN.n4 VN.t4 233.855
R1 VN.n19 VN.t3 233.855
R2 VN.n13 VN.t6 213.815
R3 VN.n28 VN.t0 213.815
R4 VN.n3 VN.t5 182.196
R5 VN.n1 VN.t7 182.196
R6 VN.n18 VN.t2 182.196
R7 VN.n16 VN.t1 182.196
R8 VN.n27 VN.n15 161.3
R9 VN.n26 VN.n25 161.3
R10 VN.n24 VN.n23 161.3
R11 VN.n22 VN.n17 161.3
R12 VN.n21 VN.n20 161.3
R13 VN.n12 VN.n0 161.3
R14 VN.n11 VN.n10 161.3
R15 VN.n9 VN.n8 161.3
R16 VN.n7 VN.n2 161.3
R17 VN.n6 VN.n5 161.3
R18 VN.n29 VN.n28 80.6037
R19 VN.n14 VN.n13 80.6037
R20 VN.n4 VN.n3 43.2178
R21 VN.n19 VN.n18 43.2178
R22 VN VN.n29 43.1127
R23 VN.n7 VN.n6 40.4934
R24 VN.n8 VN.n7 40.4934
R25 VN.n22 VN.n21 40.4934
R26 VN.n23 VN.n22 40.4934
R27 VN.n13 VN.n12 35.7853
R28 VN.n28 VN.n27 35.7853
R29 VN.n12 VN.n11 32.7233
R30 VN.n27 VN.n26 32.7233
R31 VN.n20 VN.n19 29.2134
R32 VN.n5 VN.n4 29.2134
R33 VN.n6 VN.n3 14.1914
R34 VN.n8 VN.n1 14.1914
R35 VN.n21 VN.n18 14.1914
R36 VN.n23 VN.n16 14.1914
R37 VN.n11 VN.n1 10.2766
R38 VN.n26 VN.n16 10.2766
R39 VN.n29 VN.n15 0.285035
R40 VN.n14 VN.n0 0.285035
R41 VN.n25 VN.n15 0.189894
R42 VN.n25 VN.n24 0.189894
R43 VN.n24 VN.n17 0.189894
R44 VN.n20 VN.n17 0.189894
R45 VN.n5 VN.n2 0.189894
R46 VN.n9 VN.n2 0.189894
R47 VN.n10 VN.n9 0.189894
R48 VN.n10 VN.n0 0.189894
R49 VN VN.n14 0.146778
R50 VDD2.n2 VDD2.n1 83.2791
R51 VDD2.n2 VDD2.n0 83.2791
R52 VDD2 VDD2.n5 83.2763
R53 VDD2.n4 VDD2.n3 82.6536
R54 VDD2.n4 VDD2.n2 37.9912
R55 VDD2.n5 VDD2.t7 3.44018
R56 VDD2.n5 VDD2.t5 3.44018
R57 VDD2.n3 VDD2.t2 3.44018
R58 VDD2.n3 VDD2.t1 3.44018
R59 VDD2.n1 VDD2.t4 3.44018
R60 VDD2.n1 VDD2.t6 3.44018
R61 VDD2.n0 VDD2.t0 3.44018
R62 VDD2.n0 VDD2.t3 3.44018
R63 VDD2 VDD2.n4 0.739724
R64 VTAIL.n402 VTAIL.n358 756.745
R65 VTAIL.n46 VTAIL.n2 756.745
R66 VTAIL.n96 VTAIL.n52 756.745
R67 VTAIL.n148 VTAIL.n104 756.745
R68 VTAIL.n352 VTAIL.n308 756.745
R69 VTAIL.n300 VTAIL.n256 756.745
R70 VTAIL.n250 VTAIL.n206 756.745
R71 VTAIL.n198 VTAIL.n154 756.745
R72 VTAIL.n375 VTAIL.n374 585
R73 VTAIL.n377 VTAIL.n376 585
R74 VTAIL.n370 VTAIL.n369 585
R75 VTAIL.n383 VTAIL.n382 585
R76 VTAIL.n385 VTAIL.n384 585
R77 VTAIL.n366 VTAIL.n365 585
R78 VTAIL.n392 VTAIL.n391 585
R79 VTAIL.n393 VTAIL.n364 585
R80 VTAIL.n395 VTAIL.n394 585
R81 VTAIL.n362 VTAIL.n361 585
R82 VTAIL.n401 VTAIL.n400 585
R83 VTAIL.n403 VTAIL.n402 585
R84 VTAIL.n19 VTAIL.n18 585
R85 VTAIL.n21 VTAIL.n20 585
R86 VTAIL.n14 VTAIL.n13 585
R87 VTAIL.n27 VTAIL.n26 585
R88 VTAIL.n29 VTAIL.n28 585
R89 VTAIL.n10 VTAIL.n9 585
R90 VTAIL.n36 VTAIL.n35 585
R91 VTAIL.n37 VTAIL.n8 585
R92 VTAIL.n39 VTAIL.n38 585
R93 VTAIL.n6 VTAIL.n5 585
R94 VTAIL.n45 VTAIL.n44 585
R95 VTAIL.n47 VTAIL.n46 585
R96 VTAIL.n69 VTAIL.n68 585
R97 VTAIL.n71 VTAIL.n70 585
R98 VTAIL.n64 VTAIL.n63 585
R99 VTAIL.n77 VTAIL.n76 585
R100 VTAIL.n79 VTAIL.n78 585
R101 VTAIL.n60 VTAIL.n59 585
R102 VTAIL.n86 VTAIL.n85 585
R103 VTAIL.n87 VTAIL.n58 585
R104 VTAIL.n89 VTAIL.n88 585
R105 VTAIL.n56 VTAIL.n55 585
R106 VTAIL.n95 VTAIL.n94 585
R107 VTAIL.n97 VTAIL.n96 585
R108 VTAIL.n121 VTAIL.n120 585
R109 VTAIL.n123 VTAIL.n122 585
R110 VTAIL.n116 VTAIL.n115 585
R111 VTAIL.n129 VTAIL.n128 585
R112 VTAIL.n131 VTAIL.n130 585
R113 VTAIL.n112 VTAIL.n111 585
R114 VTAIL.n138 VTAIL.n137 585
R115 VTAIL.n139 VTAIL.n110 585
R116 VTAIL.n141 VTAIL.n140 585
R117 VTAIL.n108 VTAIL.n107 585
R118 VTAIL.n147 VTAIL.n146 585
R119 VTAIL.n149 VTAIL.n148 585
R120 VTAIL.n353 VTAIL.n352 585
R121 VTAIL.n351 VTAIL.n350 585
R122 VTAIL.n312 VTAIL.n311 585
R123 VTAIL.n316 VTAIL.n314 585
R124 VTAIL.n345 VTAIL.n344 585
R125 VTAIL.n343 VTAIL.n342 585
R126 VTAIL.n318 VTAIL.n317 585
R127 VTAIL.n337 VTAIL.n336 585
R128 VTAIL.n335 VTAIL.n334 585
R129 VTAIL.n322 VTAIL.n321 585
R130 VTAIL.n329 VTAIL.n328 585
R131 VTAIL.n327 VTAIL.n326 585
R132 VTAIL.n301 VTAIL.n300 585
R133 VTAIL.n299 VTAIL.n298 585
R134 VTAIL.n260 VTAIL.n259 585
R135 VTAIL.n264 VTAIL.n262 585
R136 VTAIL.n293 VTAIL.n292 585
R137 VTAIL.n291 VTAIL.n290 585
R138 VTAIL.n266 VTAIL.n265 585
R139 VTAIL.n285 VTAIL.n284 585
R140 VTAIL.n283 VTAIL.n282 585
R141 VTAIL.n270 VTAIL.n269 585
R142 VTAIL.n277 VTAIL.n276 585
R143 VTAIL.n275 VTAIL.n274 585
R144 VTAIL.n251 VTAIL.n250 585
R145 VTAIL.n249 VTAIL.n248 585
R146 VTAIL.n210 VTAIL.n209 585
R147 VTAIL.n214 VTAIL.n212 585
R148 VTAIL.n243 VTAIL.n242 585
R149 VTAIL.n241 VTAIL.n240 585
R150 VTAIL.n216 VTAIL.n215 585
R151 VTAIL.n235 VTAIL.n234 585
R152 VTAIL.n233 VTAIL.n232 585
R153 VTAIL.n220 VTAIL.n219 585
R154 VTAIL.n227 VTAIL.n226 585
R155 VTAIL.n225 VTAIL.n224 585
R156 VTAIL.n199 VTAIL.n198 585
R157 VTAIL.n197 VTAIL.n196 585
R158 VTAIL.n158 VTAIL.n157 585
R159 VTAIL.n162 VTAIL.n160 585
R160 VTAIL.n191 VTAIL.n190 585
R161 VTAIL.n189 VTAIL.n188 585
R162 VTAIL.n164 VTAIL.n163 585
R163 VTAIL.n183 VTAIL.n182 585
R164 VTAIL.n181 VTAIL.n180 585
R165 VTAIL.n168 VTAIL.n167 585
R166 VTAIL.n175 VTAIL.n174 585
R167 VTAIL.n173 VTAIL.n172 585
R168 VTAIL.n373 VTAIL.t8 329.038
R169 VTAIL.n17 VTAIL.t10 329.038
R170 VTAIL.n67 VTAIL.t1 329.038
R171 VTAIL.n119 VTAIL.t0 329.038
R172 VTAIL.n325 VTAIL.t15 329.038
R173 VTAIL.n273 VTAIL.t3 329.038
R174 VTAIL.n223 VTAIL.t11 329.038
R175 VTAIL.n171 VTAIL.t14 329.038
R176 VTAIL.n376 VTAIL.n375 171.744
R177 VTAIL.n376 VTAIL.n369 171.744
R178 VTAIL.n383 VTAIL.n369 171.744
R179 VTAIL.n384 VTAIL.n383 171.744
R180 VTAIL.n384 VTAIL.n365 171.744
R181 VTAIL.n392 VTAIL.n365 171.744
R182 VTAIL.n393 VTAIL.n392 171.744
R183 VTAIL.n394 VTAIL.n393 171.744
R184 VTAIL.n394 VTAIL.n361 171.744
R185 VTAIL.n401 VTAIL.n361 171.744
R186 VTAIL.n402 VTAIL.n401 171.744
R187 VTAIL.n20 VTAIL.n19 171.744
R188 VTAIL.n20 VTAIL.n13 171.744
R189 VTAIL.n27 VTAIL.n13 171.744
R190 VTAIL.n28 VTAIL.n27 171.744
R191 VTAIL.n28 VTAIL.n9 171.744
R192 VTAIL.n36 VTAIL.n9 171.744
R193 VTAIL.n37 VTAIL.n36 171.744
R194 VTAIL.n38 VTAIL.n37 171.744
R195 VTAIL.n38 VTAIL.n5 171.744
R196 VTAIL.n45 VTAIL.n5 171.744
R197 VTAIL.n46 VTAIL.n45 171.744
R198 VTAIL.n70 VTAIL.n69 171.744
R199 VTAIL.n70 VTAIL.n63 171.744
R200 VTAIL.n77 VTAIL.n63 171.744
R201 VTAIL.n78 VTAIL.n77 171.744
R202 VTAIL.n78 VTAIL.n59 171.744
R203 VTAIL.n86 VTAIL.n59 171.744
R204 VTAIL.n87 VTAIL.n86 171.744
R205 VTAIL.n88 VTAIL.n87 171.744
R206 VTAIL.n88 VTAIL.n55 171.744
R207 VTAIL.n95 VTAIL.n55 171.744
R208 VTAIL.n96 VTAIL.n95 171.744
R209 VTAIL.n122 VTAIL.n121 171.744
R210 VTAIL.n122 VTAIL.n115 171.744
R211 VTAIL.n129 VTAIL.n115 171.744
R212 VTAIL.n130 VTAIL.n129 171.744
R213 VTAIL.n130 VTAIL.n111 171.744
R214 VTAIL.n138 VTAIL.n111 171.744
R215 VTAIL.n139 VTAIL.n138 171.744
R216 VTAIL.n140 VTAIL.n139 171.744
R217 VTAIL.n140 VTAIL.n107 171.744
R218 VTAIL.n147 VTAIL.n107 171.744
R219 VTAIL.n148 VTAIL.n147 171.744
R220 VTAIL.n352 VTAIL.n351 171.744
R221 VTAIL.n351 VTAIL.n311 171.744
R222 VTAIL.n316 VTAIL.n311 171.744
R223 VTAIL.n344 VTAIL.n316 171.744
R224 VTAIL.n344 VTAIL.n343 171.744
R225 VTAIL.n343 VTAIL.n317 171.744
R226 VTAIL.n336 VTAIL.n317 171.744
R227 VTAIL.n336 VTAIL.n335 171.744
R228 VTAIL.n335 VTAIL.n321 171.744
R229 VTAIL.n328 VTAIL.n321 171.744
R230 VTAIL.n328 VTAIL.n327 171.744
R231 VTAIL.n300 VTAIL.n299 171.744
R232 VTAIL.n299 VTAIL.n259 171.744
R233 VTAIL.n264 VTAIL.n259 171.744
R234 VTAIL.n292 VTAIL.n264 171.744
R235 VTAIL.n292 VTAIL.n291 171.744
R236 VTAIL.n291 VTAIL.n265 171.744
R237 VTAIL.n284 VTAIL.n265 171.744
R238 VTAIL.n284 VTAIL.n283 171.744
R239 VTAIL.n283 VTAIL.n269 171.744
R240 VTAIL.n276 VTAIL.n269 171.744
R241 VTAIL.n276 VTAIL.n275 171.744
R242 VTAIL.n250 VTAIL.n249 171.744
R243 VTAIL.n249 VTAIL.n209 171.744
R244 VTAIL.n214 VTAIL.n209 171.744
R245 VTAIL.n242 VTAIL.n214 171.744
R246 VTAIL.n242 VTAIL.n241 171.744
R247 VTAIL.n241 VTAIL.n215 171.744
R248 VTAIL.n234 VTAIL.n215 171.744
R249 VTAIL.n234 VTAIL.n233 171.744
R250 VTAIL.n233 VTAIL.n219 171.744
R251 VTAIL.n226 VTAIL.n219 171.744
R252 VTAIL.n226 VTAIL.n225 171.744
R253 VTAIL.n198 VTAIL.n197 171.744
R254 VTAIL.n197 VTAIL.n157 171.744
R255 VTAIL.n162 VTAIL.n157 171.744
R256 VTAIL.n190 VTAIL.n162 171.744
R257 VTAIL.n190 VTAIL.n189 171.744
R258 VTAIL.n189 VTAIL.n163 171.744
R259 VTAIL.n182 VTAIL.n163 171.744
R260 VTAIL.n182 VTAIL.n181 171.744
R261 VTAIL.n181 VTAIL.n167 171.744
R262 VTAIL.n174 VTAIL.n167 171.744
R263 VTAIL.n174 VTAIL.n173 171.744
R264 VTAIL.n375 VTAIL.t8 85.8723
R265 VTAIL.n19 VTAIL.t10 85.8723
R266 VTAIL.n69 VTAIL.t1 85.8723
R267 VTAIL.n121 VTAIL.t0 85.8723
R268 VTAIL.n327 VTAIL.t15 85.8723
R269 VTAIL.n275 VTAIL.t3 85.8723
R270 VTAIL.n225 VTAIL.t11 85.8723
R271 VTAIL.n173 VTAIL.t14 85.8723
R272 VTAIL.n307 VTAIL.n306 65.9748
R273 VTAIL.n205 VTAIL.n204 65.9748
R274 VTAIL.n1 VTAIL.n0 65.9747
R275 VTAIL.n103 VTAIL.n102 65.9747
R276 VTAIL.n407 VTAIL.n406 36.2581
R277 VTAIL.n51 VTAIL.n50 36.2581
R278 VTAIL.n101 VTAIL.n100 36.2581
R279 VTAIL.n153 VTAIL.n152 36.2581
R280 VTAIL.n357 VTAIL.n356 36.2581
R281 VTAIL.n305 VTAIL.n304 36.2581
R282 VTAIL.n255 VTAIL.n254 36.2581
R283 VTAIL.n203 VTAIL.n202 36.2581
R284 VTAIL.n407 VTAIL.n357 21.8755
R285 VTAIL.n203 VTAIL.n153 21.8755
R286 VTAIL.n395 VTAIL.n362 13.1884
R287 VTAIL.n39 VTAIL.n6 13.1884
R288 VTAIL.n89 VTAIL.n56 13.1884
R289 VTAIL.n141 VTAIL.n108 13.1884
R290 VTAIL.n314 VTAIL.n312 13.1884
R291 VTAIL.n262 VTAIL.n260 13.1884
R292 VTAIL.n212 VTAIL.n210 13.1884
R293 VTAIL.n160 VTAIL.n158 13.1884
R294 VTAIL.n396 VTAIL.n364 12.8005
R295 VTAIL.n400 VTAIL.n399 12.8005
R296 VTAIL.n40 VTAIL.n8 12.8005
R297 VTAIL.n44 VTAIL.n43 12.8005
R298 VTAIL.n90 VTAIL.n58 12.8005
R299 VTAIL.n94 VTAIL.n93 12.8005
R300 VTAIL.n142 VTAIL.n110 12.8005
R301 VTAIL.n146 VTAIL.n145 12.8005
R302 VTAIL.n350 VTAIL.n349 12.8005
R303 VTAIL.n346 VTAIL.n345 12.8005
R304 VTAIL.n298 VTAIL.n297 12.8005
R305 VTAIL.n294 VTAIL.n293 12.8005
R306 VTAIL.n248 VTAIL.n247 12.8005
R307 VTAIL.n244 VTAIL.n243 12.8005
R308 VTAIL.n196 VTAIL.n195 12.8005
R309 VTAIL.n192 VTAIL.n191 12.8005
R310 VTAIL.n391 VTAIL.n390 12.0247
R311 VTAIL.n403 VTAIL.n360 12.0247
R312 VTAIL.n35 VTAIL.n34 12.0247
R313 VTAIL.n47 VTAIL.n4 12.0247
R314 VTAIL.n85 VTAIL.n84 12.0247
R315 VTAIL.n97 VTAIL.n54 12.0247
R316 VTAIL.n137 VTAIL.n136 12.0247
R317 VTAIL.n149 VTAIL.n106 12.0247
R318 VTAIL.n353 VTAIL.n310 12.0247
R319 VTAIL.n342 VTAIL.n315 12.0247
R320 VTAIL.n301 VTAIL.n258 12.0247
R321 VTAIL.n290 VTAIL.n263 12.0247
R322 VTAIL.n251 VTAIL.n208 12.0247
R323 VTAIL.n240 VTAIL.n213 12.0247
R324 VTAIL.n199 VTAIL.n156 12.0247
R325 VTAIL.n188 VTAIL.n161 12.0247
R326 VTAIL.n389 VTAIL.n366 11.249
R327 VTAIL.n404 VTAIL.n358 11.249
R328 VTAIL.n33 VTAIL.n10 11.249
R329 VTAIL.n48 VTAIL.n2 11.249
R330 VTAIL.n83 VTAIL.n60 11.249
R331 VTAIL.n98 VTAIL.n52 11.249
R332 VTAIL.n135 VTAIL.n112 11.249
R333 VTAIL.n150 VTAIL.n104 11.249
R334 VTAIL.n354 VTAIL.n308 11.249
R335 VTAIL.n341 VTAIL.n318 11.249
R336 VTAIL.n302 VTAIL.n256 11.249
R337 VTAIL.n289 VTAIL.n266 11.249
R338 VTAIL.n252 VTAIL.n206 11.249
R339 VTAIL.n239 VTAIL.n216 11.249
R340 VTAIL.n200 VTAIL.n154 11.249
R341 VTAIL.n187 VTAIL.n164 11.249
R342 VTAIL.n374 VTAIL.n373 10.7239
R343 VTAIL.n18 VTAIL.n17 10.7239
R344 VTAIL.n68 VTAIL.n67 10.7239
R345 VTAIL.n120 VTAIL.n119 10.7239
R346 VTAIL.n326 VTAIL.n325 10.7239
R347 VTAIL.n274 VTAIL.n273 10.7239
R348 VTAIL.n224 VTAIL.n223 10.7239
R349 VTAIL.n172 VTAIL.n171 10.7239
R350 VTAIL.n386 VTAIL.n385 10.4732
R351 VTAIL.n30 VTAIL.n29 10.4732
R352 VTAIL.n80 VTAIL.n79 10.4732
R353 VTAIL.n132 VTAIL.n131 10.4732
R354 VTAIL.n338 VTAIL.n337 10.4732
R355 VTAIL.n286 VTAIL.n285 10.4732
R356 VTAIL.n236 VTAIL.n235 10.4732
R357 VTAIL.n184 VTAIL.n183 10.4732
R358 VTAIL.n382 VTAIL.n368 9.69747
R359 VTAIL.n26 VTAIL.n12 9.69747
R360 VTAIL.n76 VTAIL.n62 9.69747
R361 VTAIL.n128 VTAIL.n114 9.69747
R362 VTAIL.n334 VTAIL.n320 9.69747
R363 VTAIL.n282 VTAIL.n268 9.69747
R364 VTAIL.n232 VTAIL.n218 9.69747
R365 VTAIL.n180 VTAIL.n166 9.69747
R366 VTAIL.n406 VTAIL.n405 9.45567
R367 VTAIL.n50 VTAIL.n49 9.45567
R368 VTAIL.n100 VTAIL.n99 9.45567
R369 VTAIL.n152 VTAIL.n151 9.45567
R370 VTAIL.n356 VTAIL.n355 9.45567
R371 VTAIL.n304 VTAIL.n303 9.45567
R372 VTAIL.n254 VTAIL.n253 9.45567
R373 VTAIL.n202 VTAIL.n201 9.45567
R374 VTAIL.n405 VTAIL.n404 9.3005
R375 VTAIL.n360 VTAIL.n359 9.3005
R376 VTAIL.n399 VTAIL.n398 9.3005
R377 VTAIL.n372 VTAIL.n371 9.3005
R378 VTAIL.n379 VTAIL.n378 9.3005
R379 VTAIL.n381 VTAIL.n380 9.3005
R380 VTAIL.n368 VTAIL.n367 9.3005
R381 VTAIL.n387 VTAIL.n386 9.3005
R382 VTAIL.n389 VTAIL.n388 9.3005
R383 VTAIL.n390 VTAIL.n363 9.3005
R384 VTAIL.n397 VTAIL.n396 9.3005
R385 VTAIL.n49 VTAIL.n48 9.3005
R386 VTAIL.n4 VTAIL.n3 9.3005
R387 VTAIL.n43 VTAIL.n42 9.3005
R388 VTAIL.n16 VTAIL.n15 9.3005
R389 VTAIL.n23 VTAIL.n22 9.3005
R390 VTAIL.n25 VTAIL.n24 9.3005
R391 VTAIL.n12 VTAIL.n11 9.3005
R392 VTAIL.n31 VTAIL.n30 9.3005
R393 VTAIL.n33 VTAIL.n32 9.3005
R394 VTAIL.n34 VTAIL.n7 9.3005
R395 VTAIL.n41 VTAIL.n40 9.3005
R396 VTAIL.n99 VTAIL.n98 9.3005
R397 VTAIL.n54 VTAIL.n53 9.3005
R398 VTAIL.n93 VTAIL.n92 9.3005
R399 VTAIL.n66 VTAIL.n65 9.3005
R400 VTAIL.n73 VTAIL.n72 9.3005
R401 VTAIL.n75 VTAIL.n74 9.3005
R402 VTAIL.n62 VTAIL.n61 9.3005
R403 VTAIL.n81 VTAIL.n80 9.3005
R404 VTAIL.n83 VTAIL.n82 9.3005
R405 VTAIL.n84 VTAIL.n57 9.3005
R406 VTAIL.n91 VTAIL.n90 9.3005
R407 VTAIL.n151 VTAIL.n150 9.3005
R408 VTAIL.n106 VTAIL.n105 9.3005
R409 VTAIL.n145 VTAIL.n144 9.3005
R410 VTAIL.n118 VTAIL.n117 9.3005
R411 VTAIL.n125 VTAIL.n124 9.3005
R412 VTAIL.n127 VTAIL.n126 9.3005
R413 VTAIL.n114 VTAIL.n113 9.3005
R414 VTAIL.n133 VTAIL.n132 9.3005
R415 VTAIL.n135 VTAIL.n134 9.3005
R416 VTAIL.n136 VTAIL.n109 9.3005
R417 VTAIL.n143 VTAIL.n142 9.3005
R418 VTAIL.n324 VTAIL.n323 9.3005
R419 VTAIL.n331 VTAIL.n330 9.3005
R420 VTAIL.n333 VTAIL.n332 9.3005
R421 VTAIL.n320 VTAIL.n319 9.3005
R422 VTAIL.n339 VTAIL.n338 9.3005
R423 VTAIL.n341 VTAIL.n340 9.3005
R424 VTAIL.n315 VTAIL.n313 9.3005
R425 VTAIL.n347 VTAIL.n346 9.3005
R426 VTAIL.n355 VTAIL.n354 9.3005
R427 VTAIL.n310 VTAIL.n309 9.3005
R428 VTAIL.n349 VTAIL.n348 9.3005
R429 VTAIL.n272 VTAIL.n271 9.3005
R430 VTAIL.n279 VTAIL.n278 9.3005
R431 VTAIL.n281 VTAIL.n280 9.3005
R432 VTAIL.n268 VTAIL.n267 9.3005
R433 VTAIL.n287 VTAIL.n286 9.3005
R434 VTAIL.n289 VTAIL.n288 9.3005
R435 VTAIL.n263 VTAIL.n261 9.3005
R436 VTAIL.n295 VTAIL.n294 9.3005
R437 VTAIL.n303 VTAIL.n302 9.3005
R438 VTAIL.n258 VTAIL.n257 9.3005
R439 VTAIL.n297 VTAIL.n296 9.3005
R440 VTAIL.n222 VTAIL.n221 9.3005
R441 VTAIL.n229 VTAIL.n228 9.3005
R442 VTAIL.n231 VTAIL.n230 9.3005
R443 VTAIL.n218 VTAIL.n217 9.3005
R444 VTAIL.n237 VTAIL.n236 9.3005
R445 VTAIL.n239 VTAIL.n238 9.3005
R446 VTAIL.n213 VTAIL.n211 9.3005
R447 VTAIL.n245 VTAIL.n244 9.3005
R448 VTAIL.n253 VTAIL.n252 9.3005
R449 VTAIL.n208 VTAIL.n207 9.3005
R450 VTAIL.n247 VTAIL.n246 9.3005
R451 VTAIL.n170 VTAIL.n169 9.3005
R452 VTAIL.n177 VTAIL.n176 9.3005
R453 VTAIL.n179 VTAIL.n178 9.3005
R454 VTAIL.n166 VTAIL.n165 9.3005
R455 VTAIL.n185 VTAIL.n184 9.3005
R456 VTAIL.n187 VTAIL.n186 9.3005
R457 VTAIL.n161 VTAIL.n159 9.3005
R458 VTAIL.n193 VTAIL.n192 9.3005
R459 VTAIL.n201 VTAIL.n200 9.3005
R460 VTAIL.n156 VTAIL.n155 9.3005
R461 VTAIL.n195 VTAIL.n194 9.3005
R462 VTAIL.n381 VTAIL.n370 8.92171
R463 VTAIL.n25 VTAIL.n14 8.92171
R464 VTAIL.n75 VTAIL.n64 8.92171
R465 VTAIL.n127 VTAIL.n116 8.92171
R466 VTAIL.n333 VTAIL.n322 8.92171
R467 VTAIL.n281 VTAIL.n270 8.92171
R468 VTAIL.n231 VTAIL.n220 8.92171
R469 VTAIL.n179 VTAIL.n168 8.92171
R470 VTAIL.n378 VTAIL.n377 8.14595
R471 VTAIL.n22 VTAIL.n21 8.14595
R472 VTAIL.n72 VTAIL.n71 8.14595
R473 VTAIL.n124 VTAIL.n123 8.14595
R474 VTAIL.n330 VTAIL.n329 8.14595
R475 VTAIL.n278 VTAIL.n277 8.14595
R476 VTAIL.n228 VTAIL.n227 8.14595
R477 VTAIL.n176 VTAIL.n175 8.14595
R478 VTAIL.n374 VTAIL.n372 7.3702
R479 VTAIL.n18 VTAIL.n16 7.3702
R480 VTAIL.n68 VTAIL.n66 7.3702
R481 VTAIL.n120 VTAIL.n118 7.3702
R482 VTAIL.n326 VTAIL.n324 7.3702
R483 VTAIL.n274 VTAIL.n272 7.3702
R484 VTAIL.n224 VTAIL.n222 7.3702
R485 VTAIL.n172 VTAIL.n170 7.3702
R486 VTAIL.n377 VTAIL.n372 5.81868
R487 VTAIL.n21 VTAIL.n16 5.81868
R488 VTAIL.n71 VTAIL.n66 5.81868
R489 VTAIL.n123 VTAIL.n118 5.81868
R490 VTAIL.n329 VTAIL.n324 5.81868
R491 VTAIL.n277 VTAIL.n272 5.81868
R492 VTAIL.n227 VTAIL.n222 5.81868
R493 VTAIL.n175 VTAIL.n170 5.81868
R494 VTAIL.n378 VTAIL.n370 5.04292
R495 VTAIL.n22 VTAIL.n14 5.04292
R496 VTAIL.n72 VTAIL.n64 5.04292
R497 VTAIL.n124 VTAIL.n116 5.04292
R498 VTAIL.n330 VTAIL.n322 5.04292
R499 VTAIL.n278 VTAIL.n270 5.04292
R500 VTAIL.n228 VTAIL.n220 5.04292
R501 VTAIL.n176 VTAIL.n168 5.04292
R502 VTAIL.n382 VTAIL.n381 4.26717
R503 VTAIL.n26 VTAIL.n25 4.26717
R504 VTAIL.n76 VTAIL.n75 4.26717
R505 VTAIL.n128 VTAIL.n127 4.26717
R506 VTAIL.n334 VTAIL.n333 4.26717
R507 VTAIL.n282 VTAIL.n281 4.26717
R508 VTAIL.n232 VTAIL.n231 4.26717
R509 VTAIL.n180 VTAIL.n179 4.26717
R510 VTAIL.n385 VTAIL.n368 3.49141
R511 VTAIL.n29 VTAIL.n12 3.49141
R512 VTAIL.n79 VTAIL.n62 3.49141
R513 VTAIL.n131 VTAIL.n114 3.49141
R514 VTAIL.n337 VTAIL.n320 3.49141
R515 VTAIL.n285 VTAIL.n268 3.49141
R516 VTAIL.n235 VTAIL.n218 3.49141
R517 VTAIL.n183 VTAIL.n166 3.49141
R518 VTAIL.n0 VTAIL.t9 3.44018
R519 VTAIL.n0 VTAIL.t7 3.44018
R520 VTAIL.n102 VTAIL.t4 3.44018
R521 VTAIL.n102 VTAIL.t5 3.44018
R522 VTAIL.n306 VTAIL.t2 3.44018
R523 VTAIL.n306 VTAIL.t6 3.44018
R524 VTAIL.n204 VTAIL.t13 3.44018
R525 VTAIL.n204 VTAIL.t12 3.44018
R526 VTAIL.n386 VTAIL.n366 2.71565
R527 VTAIL.n406 VTAIL.n358 2.71565
R528 VTAIL.n30 VTAIL.n10 2.71565
R529 VTAIL.n50 VTAIL.n2 2.71565
R530 VTAIL.n80 VTAIL.n60 2.71565
R531 VTAIL.n100 VTAIL.n52 2.71565
R532 VTAIL.n132 VTAIL.n112 2.71565
R533 VTAIL.n152 VTAIL.n104 2.71565
R534 VTAIL.n356 VTAIL.n308 2.71565
R535 VTAIL.n338 VTAIL.n318 2.71565
R536 VTAIL.n304 VTAIL.n256 2.71565
R537 VTAIL.n286 VTAIL.n266 2.71565
R538 VTAIL.n254 VTAIL.n206 2.71565
R539 VTAIL.n236 VTAIL.n216 2.71565
R540 VTAIL.n202 VTAIL.n154 2.71565
R541 VTAIL.n184 VTAIL.n164 2.71565
R542 VTAIL.n373 VTAIL.n371 2.41283
R543 VTAIL.n17 VTAIL.n15 2.41283
R544 VTAIL.n67 VTAIL.n65 2.41283
R545 VTAIL.n119 VTAIL.n117 2.41283
R546 VTAIL.n325 VTAIL.n323 2.41283
R547 VTAIL.n273 VTAIL.n271 2.41283
R548 VTAIL.n223 VTAIL.n221 2.41283
R549 VTAIL.n171 VTAIL.n169 2.41283
R550 VTAIL.n391 VTAIL.n389 1.93989
R551 VTAIL.n404 VTAIL.n403 1.93989
R552 VTAIL.n35 VTAIL.n33 1.93989
R553 VTAIL.n48 VTAIL.n47 1.93989
R554 VTAIL.n85 VTAIL.n83 1.93989
R555 VTAIL.n98 VTAIL.n97 1.93989
R556 VTAIL.n137 VTAIL.n135 1.93989
R557 VTAIL.n150 VTAIL.n149 1.93989
R558 VTAIL.n354 VTAIL.n353 1.93989
R559 VTAIL.n342 VTAIL.n341 1.93989
R560 VTAIL.n302 VTAIL.n301 1.93989
R561 VTAIL.n290 VTAIL.n289 1.93989
R562 VTAIL.n252 VTAIL.n251 1.93989
R563 VTAIL.n240 VTAIL.n239 1.93989
R564 VTAIL.n200 VTAIL.n199 1.93989
R565 VTAIL.n188 VTAIL.n187 1.93989
R566 VTAIL.n205 VTAIL.n203 1.36257
R567 VTAIL.n255 VTAIL.n205 1.36257
R568 VTAIL.n307 VTAIL.n305 1.36257
R569 VTAIL.n357 VTAIL.n307 1.36257
R570 VTAIL.n153 VTAIL.n103 1.36257
R571 VTAIL.n103 VTAIL.n101 1.36257
R572 VTAIL.n51 VTAIL.n1 1.36257
R573 VTAIL VTAIL.n407 1.30438
R574 VTAIL.n390 VTAIL.n364 1.16414
R575 VTAIL.n400 VTAIL.n360 1.16414
R576 VTAIL.n34 VTAIL.n8 1.16414
R577 VTAIL.n44 VTAIL.n4 1.16414
R578 VTAIL.n84 VTAIL.n58 1.16414
R579 VTAIL.n94 VTAIL.n54 1.16414
R580 VTAIL.n136 VTAIL.n110 1.16414
R581 VTAIL.n146 VTAIL.n106 1.16414
R582 VTAIL.n350 VTAIL.n310 1.16414
R583 VTAIL.n345 VTAIL.n315 1.16414
R584 VTAIL.n298 VTAIL.n258 1.16414
R585 VTAIL.n293 VTAIL.n263 1.16414
R586 VTAIL.n248 VTAIL.n208 1.16414
R587 VTAIL.n243 VTAIL.n213 1.16414
R588 VTAIL.n196 VTAIL.n156 1.16414
R589 VTAIL.n191 VTAIL.n161 1.16414
R590 VTAIL.n305 VTAIL.n255 0.470328
R591 VTAIL.n101 VTAIL.n51 0.470328
R592 VTAIL.n396 VTAIL.n395 0.388379
R593 VTAIL.n399 VTAIL.n362 0.388379
R594 VTAIL.n40 VTAIL.n39 0.388379
R595 VTAIL.n43 VTAIL.n6 0.388379
R596 VTAIL.n90 VTAIL.n89 0.388379
R597 VTAIL.n93 VTAIL.n56 0.388379
R598 VTAIL.n142 VTAIL.n141 0.388379
R599 VTAIL.n145 VTAIL.n108 0.388379
R600 VTAIL.n349 VTAIL.n312 0.388379
R601 VTAIL.n346 VTAIL.n314 0.388379
R602 VTAIL.n297 VTAIL.n260 0.388379
R603 VTAIL.n294 VTAIL.n262 0.388379
R604 VTAIL.n247 VTAIL.n210 0.388379
R605 VTAIL.n244 VTAIL.n212 0.388379
R606 VTAIL.n195 VTAIL.n158 0.388379
R607 VTAIL.n192 VTAIL.n160 0.388379
R608 VTAIL.n379 VTAIL.n371 0.155672
R609 VTAIL.n380 VTAIL.n379 0.155672
R610 VTAIL.n380 VTAIL.n367 0.155672
R611 VTAIL.n387 VTAIL.n367 0.155672
R612 VTAIL.n388 VTAIL.n387 0.155672
R613 VTAIL.n388 VTAIL.n363 0.155672
R614 VTAIL.n397 VTAIL.n363 0.155672
R615 VTAIL.n398 VTAIL.n397 0.155672
R616 VTAIL.n398 VTAIL.n359 0.155672
R617 VTAIL.n405 VTAIL.n359 0.155672
R618 VTAIL.n23 VTAIL.n15 0.155672
R619 VTAIL.n24 VTAIL.n23 0.155672
R620 VTAIL.n24 VTAIL.n11 0.155672
R621 VTAIL.n31 VTAIL.n11 0.155672
R622 VTAIL.n32 VTAIL.n31 0.155672
R623 VTAIL.n32 VTAIL.n7 0.155672
R624 VTAIL.n41 VTAIL.n7 0.155672
R625 VTAIL.n42 VTAIL.n41 0.155672
R626 VTAIL.n42 VTAIL.n3 0.155672
R627 VTAIL.n49 VTAIL.n3 0.155672
R628 VTAIL.n73 VTAIL.n65 0.155672
R629 VTAIL.n74 VTAIL.n73 0.155672
R630 VTAIL.n74 VTAIL.n61 0.155672
R631 VTAIL.n81 VTAIL.n61 0.155672
R632 VTAIL.n82 VTAIL.n81 0.155672
R633 VTAIL.n82 VTAIL.n57 0.155672
R634 VTAIL.n91 VTAIL.n57 0.155672
R635 VTAIL.n92 VTAIL.n91 0.155672
R636 VTAIL.n92 VTAIL.n53 0.155672
R637 VTAIL.n99 VTAIL.n53 0.155672
R638 VTAIL.n125 VTAIL.n117 0.155672
R639 VTAIL.n126 VTAIL.n125 0.155672
R640 VTAIL.n126 VTAIL.n113 0.155672
R641 VTAIL.n133 VTAIL.n113 0.155672
R642 VTAIL.n134 VTAIL.n133 0.155672
R643 VTAIL.n134 VTAIL.n109 0.155672
R644 VTAIL.n143 VTAIL.n109 0.155672
R645 VTAIL.n144 VTAIL.n143 0.155672
R646 VTAIL.n144 VTAIL.n105 0.155672
R647 VTAIL.n151 VTAIL.n105 0.155672
R648 VTAIL.n355 VTAIL.n309 0.155672
R649 VTAIL.n348 VTAIL.n309 0.155672
R650 VTAIL.n348 VTAIL.n347 0.155672
R651 VTAIL.n347 VTAIL.n313 0.155672
R652 VTAIL.n340 VTAIL.n313 0.155672
R653 VTAIL.n340 VTAIL.n339 0.155672
R654 VTAIL.n339 VTAIL.n319 0.155672
R655 VTAIL.n332 VTAIL.n319 0.155672
R656 VTAIL.n332 VTAIL.n331 0.155672
R657 VTAIL.n331 VTAIL.n323 0.155672
R658 VTAIL.n303 VTAIL.n257 0.155672
R659 VTAIL.n296 VTAIL.n257 0.155672
R660 VTAIL.n296 VTAIL.n295 0.155672
R661 VTAIL.n295 VTAIL.n261 0.155672
R662 VTAIL.n288 VTAIL.n261 0.155672
R663 VTAIL.n288 VTAIL.n287 0.155672
R664 VTAIL.n287 VTAIL.n267 0.155672
R665 VTAIL.n280 VTAIL.n267 0.155672
R666 VTAIL.n280 VTAIL.n279 0.155672
R667 VTAIL.n279 VTAIL.n271 0.155672
R668 VTAIL.n253 VTAIL.n207 0.155672
R669 VTAIL.n246 VTAIL.n207 0.155672
R670 VTAIL.n246 VTAIL.n245 0.155672
R671 VTAIL.n245 VTAIL.n211 0.155672
R672 VTAIL.n238 VTAIL.n211 0.155672
R673 VTAIL.n238 VTAIL.n237 0.155672
R674 VTAIL.n237 VTAIL.n217 0.155672
R675 VTAIL.n230 VTAIL.n217 0.155672
R676 VTAIL.n230 VTAIL.n229 0.155672
R677 VTAIL.n229 VTAIL.n221 0.155672
R678 VTAIL.n201 VTAIL.n155 0.155672
R679 VTAIL.n194 VTAIL.n155 0.155672
R680 VTAIL.n194 VTAIL.n193 0.155672
R681 VTAIL.n193 VTAIL.n159 0.155672
R682 VTAIL.n186 VTAIL.n159 0.155672
R683 VTAIL.n186 VTAIL.n185 0.155672
R684 VTAIL.n185 VTAIL.n165 0.155672
R685 VTAIL.n178 VTAIL.n165 0.155672
R686 VTAIL.n178 VTAIL.n177 0.155672
R687 VTAIL.n177 VTAIL.n169 0.155672
R688 VTAIL VTAIL.n1 0.0586897
R689 VP.n9 VP.t3 233.855
R690 VP.n21 VP.t7 213.815
R691 VP.n33 VP.t4 213.815
R692 VP.n18 VP.t1 213.815
R693 VP.n3 VP.t6 182.196
R694 VP.n1 VP.t0 182.196
R695 VP.n6 VP.t2 182.196
R696 VP.n8 VP.t5 182.196
R697 VP.n11 VP.n10 161.3
R698 VP.n12 VP.n7 161.3
R699 VP.n14 VP.n13 161.3
R700 VP.n16 VP.n15 161.3
R701 VP.n17 VP.n5 161.3
R702 VP.n32 VP.n0 161.3
R703 VP.n31 VP.n30 161.3
R704 VP.n29 VP.n28 161.3
R705 VP.n27 VP.n2 161.3
R706 VP.n26 VP.n25 161.3
R707 VP.n24 VP.n23 161.3
R708 VP.n22 VP.n4 161.3
R709 VP.n19 VP.n18 80.6037
R710 VP.n34 VP.n33 80.6037
R711 VP.n21 VP.n20 80.6037
R712 VP.n9 VP.n8 43.2178
R713 VP.n20 VP.n19 42.8271
R714 VP.n27 VP.n26 40.4934
R715 VP.n28 VP.n27 40.4934
R716 VP.n13 VP.n12 40.4934
R717 VP.n12 VP.n11 40.4934
R718 VP.n22 VP.n21 35.7853
R719 VP.n33 VP.n32 35.7853
R720 VP.n18 VP.n17 35.7853
R721 VP.n23 VP.n22 32.7233
R722 VP.n32 VP.n31 32.7233
R723 VP.n17 VP.n16 32.7233
R724 VP.n10 VP.n9 29.2134
R725 VP.n26 VP.n3 14.1914
R726 VP.n28 VP.n1 14.1914
R727 VP.n13 VP.n6 14.1914
R728 VP.n11 VP.n8 14.1914
R729 VP.n23 VP.n3 10.2766
R730 VP.n31 VP.n1 10.2766
R731 VP.n16 VP.n6 10.2766
R732 VP.n19 VP.n5 0.285035
R733 VP.n20 VP.n4 0.285035
R734 VP.n34 VP.n0 0.285035
R735 VP.n10 VP.n7 0.189894
R736 VP.n14 VP.n7 0.189894
R737 VP.n15 VP.n14 0.189894
R738 VP.n15 VP.n5 0.189894
R739 VP.n24 VP.n4 0.189894
R740 VP.n25 VP.n24 0.189894
R741 VP.n25 VP.n2 0.189894
R742 VP.n29 VP.n2 0.189894
R743 VP.n30 VP.n29 0.189894
R744 VP.n30 VP.n0 0.189894
R745 VP VP.n34 0.146778
R746 VDD1 VDD1.n0 83.3928
R747 VDD1.n3 VDD1.n2 83.2791
R748 VDD1.n3 VDD1.n1 83.2791
R749 VDD1.n5 VDD1.n4 82.6534
R750 VDD1.n5 VDD1.n3 38.5742
R751 VDD1.n4 VDD1.t5 3.44018
R752 VDD1.n4 VDD1.t6 3.44018
R753 VDD1.n0 VDD1.t4 3.44018
R754 VDD1.n0 VDD1.t2 3.44018
R755 VDD1.n2 VDD1.t7 3.44018
R756 VDD1.n2 VDD1.t3 3.44018
R757 VDD1.n1 VDD1.t0 3.44018
R758 VDD1.n1 VDD1.t1 3.44018
R759 VDD1 VDD1.n5 0.623345
R760 B.n315 B.n314 585
R761 B.n313 B.n94 585
R762 B.n312 B.n311 585
R763 B.n310 B.n95 585
R764 B.n309 B.n308 585
R765 B.n307 B.n96 585
R766 B.n306 B.n305 585
R767 B.n304 B.n97 585
R768 B.n303 B.n302 585
R769 B.n301 B.n98 585
R770 B.n300 B.n299 585
R771 B.n298 B.n99 585
R772 B.n297 B.n296 585
R773 B.n295 B.n100 585
R774 B.n294 B.n293 585
R775 B.n292 B.n101 585
R776 B.n291 B.n290 585
R777 B.n289 B.n102 585
R778 B.n288 B.n287 585
R779 B.n286 B.n103 585
R780 B.n285 B.n284 585
R781 B.n283 B.n104 585
R782 B.n282 B.n281 585
R783 B.n280 B.n105 585
R784 B.n279 B.n278 585
R785 B.n277 B.n106 585
R786 B.n276 B.n275 585
R787 B.n274 B.n107 585
R788 B.n273 B.n272 585
R789 B.n271 B.n108 585
R790 B.n270 B.n269 585
R791 B.n268 B.n109 585
R792 B.n267 B.n266 585
R793 B.n265 B.n110 585
R794 B.n263 B.n262 585
R795 B.n261 B.n113 585
R796 B.n260 B.n259 585
R797 B.n258 B.n114 585
R798 B.n257 B.n256 585
R799 B.n255 B.n115 585
R800 B.n254 B.n253 585
R801 B.n252 B.n116 585
R802 B.n251 B.n250 585
R803 B.n249 B.n117 585
R804 B.n248 B.n247 585
R805 B.n243 B.n118 585
R806 B.n242 B.n241 585
R807 B.n240 B.n119 585
R808 B.n239 B.n238 585
R809 B.n237 B.n120 585
R810 B.n236 B.n235 585
R811 B.n234 B.n121 585
R812 B.n233 B.n232 585
R813 B.n231 B.n122 585
R814 B.n230 B.n229 585
R815 B.n228 B.n123 585
R816 B.n227 B.n226 585
R817 B.n225 B.n124 585
R818 B.n224 B.n223 585
R819 B.n222 B.n125 585
R820 B.n221 B.n220 585
R821 B.n219 B.n126 585
R822 B.n218 B.n217 585
R823 B.n216 B.n127 585
R824 B.n215 B.n214 585
R825 B.n213 B.n128 585
R826 B.n212 B.n211 585
R827 B.n210 B.n129 585
R828 B.n209 B.n208 585
R829 B.n207 B.n130 585
R830 B.n206 B.n205 585
R831 B.n204 B.n131 585
R832 B.n203 B.n202 585
R833 B.n201 B.n132 585
R834 B.n200 B.n199 585
R835 B.n198 B.n133 585
R836 B.n197 B.n196 585
R837 B.n195 B.n134 585
R838 B.n316 B.n93 585
R839 B.n318 B.n317 585
R840 B.n319 B.n92 585
R841 B.n321 B.n320 585
R842 B.n322 B.n91 585
R843 B.n324 B.n323 585
R844 B.n325 B.n90 585
R845 B.n327 B.n326 585
R846 B.n328 B.n89 585
R847 B.n330 B.n329 585
R848 B.n331 B.n88 585
R849 B.n333 B.n332 585
R850 B.n334 B.n87 585
R851 B.n336 B.n335 585
R852 B.n337 B.n86 585
R853 B.n339 B.n338 585
R854 B.n340 B.n85 585
R855 B.n342 B.n341 585
R856 B.n343 B.n84 585
R857 B.n345 B.n344 585
R858 B.n346 B.n83 585
R859 B.n348 B.n347 585
R860 B.n349 B.n82 585
R861 B.n351 B.n350 585
R862 B.n352 B.n81 585
R863 B.n354 B.n353 585
R864 B.n355 B.n80 585
R865 B.n357 B.n356 585
R866 B.n358 B.n79 585
R867 B.n360 B.n359 585
R868 B.n361 B.n78 585
R869 B.n363 B.n362 585
R870 B.n364 B.n77 585
R871 B.n366 B.n365 585
R872 B.n367 B.n76 585
R873 B.n369 B.n368 585
R874 B.n370 B.n75 585
R875 B.n372 B.n371 585
R876 B.n373 B.n74 585
R877 B.n375 B.n374 585
R878 B.n376 B.n73 585
R879 B.n378 B.n377 585
R880 B.n379 B.n72 585
R881 B.n381 B.n380 585
R882 B.n382 B.n71 585
R883 B.n384 B.n383 585
R884 B.n385 B.n70 585
R885 B.n387 B.n386 585
R886 B.n388 B.n69 585
R887 B.n390 B.n389 585
R888 B.n391 B.n68 585
R889 B.n393 B.n392 585
R890 B.n394 B.n67 585
R891 B.n396 B.n395 585