* NGSPICE file created from diff_pair_sample_1443.ext - technology: sky130A

.subckt diff_pair_sample_1443 VTAIL VN VP B VDD2 VDD1
X0 VTAIL.t15 VP.t0 VDD1.t7 w_n2660_n3676# sky130_fd_pr__pfet_01v8 ad=5.2806 pd=27.86 as=2.2341 ps=13.87 w=13.54 l=1.36
X1 VDD2.t7 VN.t0 VTAIL.t2 w_n2660_n3676# sky130_fd_pr__pfet_01v8 ad=2.2341 pd=13.87 as=2.2341 ps=13.87 w=13.54 l=1.36
X2 VTAIL.t4 VN.t1 VDD2.t6 w_n2660_n3676# sky130_fd_pr__pfet_01v8 ad=2.2341 pd=13.87 as=2.2341 ps=13.87 w=13.54 l=1.36
X3 VDD2.t5 VN.t2 VTAIL.t7 w_n2660_n3676# sky130_fd_pr__pfet_01v8 ad=2.2341 pd=13.87 as=2.2341 ps=13.87 w=13.54 l=1.36
X4 B.t11 B.t9 B.t10 w_n2660_n3676# sky130_fd_pr__pfet_01v8 ad=5.2806 pd=27.86 as=0 ps=0 w=13.54 l=1.36
X5 VDD1.t3 VP.t1 VTAIL.t14 w_n2660_n3676# sky130_fd_pr__pfet_01v8 ad=2.2341 pd=13.87 as=2.2341 ps=13.87 w=13.54 l=1.36
X6 VDD2.t4 VN.t3 VTAIL.t1 w_n2660_n3676# sky130_fd_pr__pfet_01v8 ad=2.2341 pd=13.87 as=5.2806 ps=27.86 w=13.54 l=1.36
X7 VDD2.t3 VN.t4 VTAIL.t3 w_n2660_n3676# sky130_fd_pr__pfet_01v8 ad=2.2341 pd=13.87 as=5.2806 ps=27.86 w=13.54 l=1.36
X8 B.t8 B.t6 B.t7 w_n2660_n3676# sky130_fd_pr__pfet_01v8 ad=5.2806 pd=27.86 as=0 ps=0 w=13.54 l=1.36
X9 VTAIL.t13 VP.t2 VDD1.t2 w_n2660_n3676# sky130_fd_pr__pfet_01v8 ad=5.2806 pd=27.86 as=2.2341 ps=13.87 w=13.54 l=1.36
X10 VDD1.t4 VP.t3 VTAIL.t12 w_n2660_n3676# sky130_fd_pr__pfet_01v8 ad=2.2341 pd=13.87 as=5.2806 ps=27.86 w=13.54 l=1.36
X11 B.t5 B.t3 B.t4 w_n2660_n3676# sky130_fd_pr__pfet_01v8 ad=5.2806 pd=27.86 as=0 ps=0 w=13.54 l=1.36
X12 VTAIL.t5 VN.t5 VDD2.t2 w_n2660_n3676# sky130_fd_pr__pfet_01v8 ad=2.2341 pd=13.87 as=2.2341 ps=13.87 w=13.54 l=1.36
X13 B.t2 B.t0 B.t1 w_n2660_n3676# sky130_fd_pr__pfet_01v8 ad=5.2806 pd=27.86 as=0 ps=0 w=13.54 l=1.36
X14 VTAIL.t0 VN.t6 VDD2.t1 w_n2660_n3676# sky130_fd_pr__pfet_01v8 ad=5.2806 pd=27.86 as=2.2341 ps=13.87 w=13.54 l=1.36
X15 VDD1.t6 VP.t4 VTAIL.t11 w_n2660_n3676# sky130_fd_pr__pfet_01v8 ad=2.2341 pd=13.87 as=2.2341 ps=13.87 w=13.54 l=1.36
X16 VTAIL.t10 VP.t5 VDD1.t5 w_n2660_n3676# sky130_fd_pr__pfet_01v8 ad=2.2341 pd=13.87 as=2.2341 ps=13.87 w=13.54 l=1.36
X17 VDD1.t0 VP.t6 VTAIL.t9 w_n2660_n3676# sky130_fd_pr__pfet_01v8 ad=2.2341 pd=13.87 as=5.2806 ps=27.86 w=13.54 l=1.36
X18 VTAIL.t8 VP.t7 VDD1.t1 w_n2660_n3676# sky130_fd_pr__pfet_01v8 ad=2.2341 pd=13.87 as=2.2341 ps=13.87 w=13.54 l=1.36
X19 VTAIL.t6 VN.t7 VDD2.t0 w_n2660_n3676# sky130_fd_pr__pfet_01v8 ad=5.2806 pd=27.86 as=2.2341 ps=13.87 w=13.54 l=1.36
R0 VP.n11 VP.t2 270.158
R1 VP.n5 VP.t0 239.938
R2 VP.n29 VP.t4 239.938
R3 VP.n36 VP.t5 239.938
R4 VP.n43 VP.t3 239.938
R5 VP.n23 VP.t6 239.938
R6 VP.n16 VP.t7 239.938
R7 VP.n10 VP.t1 239.938
R8 VP.n25 VP.n5 171.875
R9 VP.n44 VP.n43 171.875
R10 VP.n24 VP.n23 171.875
R11 VP.n12 VP.n9 161.3
R12 VP.n14 VP.n13 161.3
R13 VP.n15 VP.n8 161.3
R14 VP.n18 VP.n17 161.3
R15 VP.n19 VP.n7 161.3
R16 VP.n21 VP.n20 161.3
R17 VP.n22 VP.n6 161.3
R18 VP.n42 VP.n0 161.3
R19 VP.n41 VP.n40 161.3
R20 VP.n39 VP.n1 161.3
R21 VP.n38 VP.n37 161.3
R22 VP.n35 VP.n2 161.3
R23 VP.n34 VP.n33 161.3
R24 VP.n32 VP.n3 161.3
R25 VP.n31 VP.n30 161.3
R26 VP.n28 VP.n4 161.3
R27 VP.n27 VP.n26 161.3
R28 VP.n11 VP.n10 60.629
R29 VP.n35 VP.n34 56.5617
R30 VP.n15 VP.n14 56.5617
R31 VP.n30 VP.n28 46.3896
R32 VP.n41 VP.n1 46.3896
R33 VP.n21 VP.n7 46.3896
R34 VP.n25 VP.n24 46.2126
R35 VP.n28 VP.n27 34.7644
R36 VP.n42 VP.n41 34.7644
R37 VP.n22 VP.n21 34.7644
R38 VP.n12 VP.n11 26.9001
R39 VP.n34 VP.n3 24.5923
R40 VP.n37 VP.n35 24.5923
R41 VP.n17 VP.n15 24.5923
R42 VP.n14 VP.n9 24.5923
R43 VP.n30 VP.n29 19.9199
R44 VP.n36 VP.n1 19.9199
R45 VP.n16 VP.n7 19.9199
R46 VP.n27 VP.n5 14.0178
R47 VP.n43 VP.n42 14.0178
R48 VP.n23 VP.n22 14.0178
R49 VP.n29 VP.n3 4.67295
R50 VP.n37 VP.n36 4.67295
R51 VP.n17 VP.n16 4.67295
R52 VP.n10 VP.n9 4.67295
R53 VP.n13 VP.n12 0.189894
R54 VP.n13 VP.n8 0.189894
R55 VP.n18 VP.n8 0.189894
R56 VP.n19 VP.n18 0.189894
R57 VP.n20 VP.n19 0.189894
R58 VP.n20 VP.n6 0.189894
R59 VP.n24 VP.n6 0.189894
R60 VP.n26 VP.n25 0.189894
R61 VP.n26 VP.n4 0.189894
R62 VP.n31 VP.n4 0.189894
R63 VP.n32 VP.n31 0.189894
R64 VP.n33 VP.n32 0.189894
R65 VP.n33 VP.n2 0.189894
R66 VP.n38 VP.n2 0.189894
R67 VP.n39 VP.n38 0.189894
R68 VP.n40 VP.n39 0.189894
R69 VP.n40 VP.n0 0.189894
R70 VP.n44 VP.n0 0.189894
R71 VP VP.n44 0.0516364
R72 VDD1 VDD1.n0 72.6796
R73 VDD1.n3 VDD1.n2 72.5659
R74 VDD1.n3 VDD1.n1 72.5659
R75 VDD1.n5 VDD1.n4 71.8928
R76 VDD1.n5 VDD1.n3 42.5268
R77 VDD1.n4 VDD1.t1 2.40116
R78 VDD1.n4 VDD1.t0 2.40116
R79 VDD1.n0 VDD1.t2 2.40116
R80 VDD1.n0 VDD1.t3 2.40116
R81 VDD1.n2 VDD1.t5 2.40116
R82 VDD1.n2 VDD1.t4 2.40116
R83 VDD1.n1 VDD1.t7 2.40116
R84 VDD1.n1 VDD1.t6 2.40116
R85 VDD1 VDD1.n5 0.670759
R86 VTAIL.n594 VTAIL.n526 756.745
R87 VTAIL.n70 VTAIL.n2 756.745
R88 VTAIL.n144 VTAIL.n76 756.745
R89 VTAIL.n220 VTAIL.n152 756.745
R90 VTAIL.n520 VTAIL.n452 756.745
R91 VTAIL.n444 VTAIL.n376 756.745
R92 VTAIL.n370 VTAIL.n302 756.745
R93 VTAIL.n294 VTAIL.n226 756.745
R94 VTAIL.n551 VTAIL.n550 585
R95 VTAIL.n553 VTAIL.n552 585
R96 VTAIL.n546 VTAIL.n545 585
R97 VTAIL.n559 VTAIL.n558 585
R98 VTAIL.n561 VTAIL.n560 585
R99 VTAIL.n542 VTAIL.n541 585
R100 VTAIL.n568 VTAIL.n567 585
R101 VTAIL.n569 VTAIL.n540 585
R102 VTAIL.n571 VTAIL.n570 585
R103 VTAIL.n538 VTAIL.n537 585
R104 VTAIL.n577 VTAIL.n576 585
R105 VTAIL.n579 VTAIL.n578 585
R106 VTAIL.n534 VTAIL.n533 585
R107 VTAIL.n585 VTAIL.n584 585
R108 VTAIL.n587 VTAIL.n586 585
R109 VTAIL.n530 VTAIL.n529 585
R110 VTAIL.n593 VTAIL.n592 585
R111 VTAIL.n595 VTAIL.n594 585
R112 VTAIL.n27 VTAIL.n26 585
R113 VTAIL.n29 VTAIL.n28 585
R114 VTAIL.n22 VTAIL.n21 585
R115 VTAIL.n35 VTAIL.n34 585
R116 VTAIL.n37 VTAIL.n36 585
R117 VTAIL.n18 VTAIL.n17 585
R118 VTAIL.n44 VTAIL.n43 585
R119 VTAIL.n45 VTAIL.n16 585
R120 VTAIL.n47 VTAIL.n46 585
R121 VTAIL.n14 VTAIL.n13 585
R122 VTAIL.n53 VTAIL.n52 585
R123 VTAIL.n55 VTAIL.n54 585
R124 VTAIL.n10 VTAIL.n9 585
R125 VTAIL.n61 VTAIL.n60 585
R126 VTAIL.n63 VTAIL.n62 585
R127 VTAIL.n6 VTAIL.n5 585
R128 VTAIL.n69 VTAIL.n68 585
R129 VTAIL.n71 VTAIL.n70 585
R130 VTAIL.n101 VTAIL.n100 585
R131 VTAIL.n103 VTAIL.n102 585
R132 VTAIL.n96 VTAIL.n95 585
R133 VTAIL.n109 VTAIL.n108 585
R134 VTAIL.n111 VTAIL.n110 585
R135 VTAIL.n92 VTAIL.n91 585
R136 VTAIL.n118 VTAIL.n117 585
R137 VTAIL.n119 VTAIL.n90 585
R138 VTAIL.n121 VTAIL.n120 585
R139 VTAIL.n88 VTAIL.n87 585
R140 VTAIL.n127 VTAIL.n126 585
R141 VTAIL.n129 VTAIL.n128 585
R142 VTAIL.n84 VTAIL.n83 585
R143 VTAIL.n135 VTAIL.n134 585
R144 VTAIL.n137 VTAIL.n136 585
R145 VTAIL.n80 VTAIL.n79 585
R146 VTAIL.n143 VTAIL.n142 585
R147 VTAIL.n145 VTAIL.n144 585
R148 VTAIL.n177 VTAIL.n176 585
R149 VTAIL.n179 VTAIL.n178 585
R150 VTAIL.n172 VTAIL.n171 585
R151 VTAIL.n185 VTAIL.n184 585
R152 VTAIL.n187 VTAIL.n186 585
R153 VTAIL.n168 VTAIL.n167 585
R154 VTAIL.n194 VTAIL.n193 585
R155 VTAIL.n195 VTAIL.n166 585
R156 VTAIL.n197 VTAIL.n196 585
R157 VTAIL.n164 VTAIL.n163 585
R158 VTAIL.n203 VTAIL.n202 585
R159 VTAIL.n205 VTAIL.n204 585
R160 VTAIL.n160 VTAIL.n159 585
R161 VTAIL.n211 VTAIL.n210 585
R162 VTAIL.n213 VTAIL.n212 585
R163 VTAIL.n156 VTAIL.n155 585
R164 VTAIL.n219 VTAIL.n218 585
R165 VTAIL.n221 VTAIL.n220 585
R166 VTAIL.n521 VTAIL.n520 585
R167 VTAIL.n519 VTAIL.n518 585
R168 VTAIL.n456 VTAIL.n455 585
R169 VTAIL.n513 VTAIL.n512 585
R170 VTAIL.n511 VTAIL.n510 585
R171 VTAIL.n460 VTAIL.n459 585
R172 VTAIL.n505 VTAIL.n504 585
R173 VTAIL.n503 VTAIL.n502 585
R174 VTAIL.n464 VTAIL.n463 585
R175 VTAIL.n468 VTAIL.n466 585
R176 VTAIL.n497 VTAIL.n496 585
R177 VTAIL.n495 VTAIL.n494 585
R178 VTAIL.n470 VTAIL.n469 585
R179 VTAIL.n489 VTAIL.n488 585
R180 VTAIL.n487 VTAIL.n486 585
R181 VTAIL.n474 VTAIL.n473 585
R182 VTAIL.n481 VTAIL.n480 585
R183 VTAIL.n479 VTAIL.n478 585
R184 VTAIL.n445 VTAIL.n444 585
R185 VTAIL.n443 VTAIL.n442 585
R186 VTAIL.n380 VTAIL.n379 585
R187 VTAIL.n437 VTAIL.n436 585
R188 VTAIL.n435 VTAIL.n434 585
R189 VTAIL.n384 VTAIL.n383 585
R190 VTAIL.n429 VTAIL.n428 585
R191 VTAIL.n427 VTAIL.n426 585
R192 VTAIL.n388 VTAIL.n387 585
R193 VTAIL.n392 VTAIL.n390 585
R194 VTAIL.n421 VTAIL.n420 585
R195 VTAIL.n419 VTAIL.n418 585
R196 VTAIL.n394 VTAIL.n393 585
R197 VTAIL.n413 VTAIL.n412 585
R198 VTAIL.n411 VTAIL.n410 585
R199 VTAIL.n398 VTAIL.n397 585
R200 VTAIL.n405 VTAIL.n404 585
R201 VTAIL.n403 VTAIL.n402 585
R202 VTAIL.n371 VTAIL.n370 585
R203 VTAIL.n369 VTAIL.n368 585
R204 VTAIL.n306 VTAIL.n305 585
R205 VTAIL.n363 VTAIL.n362 585
R206 VTAIL.n361 VTAIL.n360 585
R207 VTAIL.n310 VTAIL.n309 585
R208 VTAIL.n355 VTAIL.n354 585
R209 VTAIL.n353 VTAIL.n352 585
R210 VTAIL.n314 VTAIL.n313 585
R211 VTAIL.n318 VTAIL.n316 585
R212 VTAIL.n347 VTAIL.n346 585
R213 VTAIL.n345 VTAIL.n344 585
R214 VTAIL.n320 VTAIL.n319 585
R215 VTAIL.n339 VTAIL.n338 585
R216 VTAIL.n337 VTAIL.n336 585
R217 VTAIL.n324 VTAIL.n323 585
R218 VTAIL.n331 VTAIL.n330 585
R219 VTAIL.n329 VTAIL.n328 585
R220 VTAIL.n295 VTAIL.n294 585
R221 VTAIL.n293 VTAIL.n292 585
R222 VTAIL.n230 VTAIL.n229 585
R223 VTAIL.n287 VTAIL.n286 585
R224 VTAIL.n285 VTAIL.n284 585
R225 VTAIL.n234 VTAIL.n233 585
R226 VTAIL.n279 VTAIL.n278 585
R227 VTAIL.n277 VTAIL.n276 585
R228 VTAIL.n238 VTAIL.n237 585
R229 VTAIL.n242 VTAIL.n240 585
R230 VTAIL.n271 VTAIL.n270 585
R231 VTAIL.n269 VTAIL.n268 585
R232 VTAIL.n244 VTAIL.n243 585
R233 VTAIL.n263 VTAIL.n262 585
R234 VTAIL.n261 VTAIL.n260 585
R235 VTAIL.n248 VTAIL.n247 585
R236 VTAIL.n255 VTAIL.n254 585
R237 VTAIL.n253 VTAIL.n252 585
R238 VTAIL.n549 VTAIL.t1 329.036
R239 VTAIL.n25 VTAIL.t0 329.036
R240 VTAIL.n99 VTAIL.t12 329.036
R241 VTAIL.n175 VTAIL.t15 329.036
R242 VTAIL.n477 VTAIL.t9 329.036
R243 VTAIL.n401 VTAIL.t13 329.036
R244 VTAIL.n327 VTAIL.t3 329.036
R245 VTAIL.n251 VTAIL.t6 329.036
R246 VTAIL.n552 VTAIL.n551 171.744
R247 VTAIL.n552 VTAIL.n545 171.744
R248 VTAIL.n559 VTAIL.n545 171.744
R249 VTAIL.n560 VTAIL.n559 171.744
R250 VTAIL.n560 VTAIL.n541 171.744
R251 VTAIL.n568 VTAIL.n541 171.744
R252 VTAIL.n569 VTAIL.n568 171.744
R253 VTAIL.n570 VTAIL.n569 171.744
R254 VTAIL.n570 VTAIL.n537 171.744
R255 VTAIL.n577 VTAIL.n537 171.744
R256 VTAIL.n578 VTAIL.n577 171.744
R257 VTAIL.n578 VTAIL.n533 171.744
R258 VTAIL.n585 VTAIL.n533 171.744
R259 VTAIL.n586 VTAIL.n585 171.744
R260 VTAIL.n586 VTAIL.n529 171.744
R261 VTAIL.n593 VTAIL.n529 171.744
R262 VTAIL.n594 VTAIL.n593 171.744
R263 VTAIL.n28 VTAIL.n27 171.744
R264 VTAIL.n28 VTAIL.n21 171.744
R265 VTAIL.n35 VTAIL.n21 171.744
R266 VTAIL.n36 VTAIL.n35 171.744
R267 VTAIL.n36 VTAIL.n17 171.744
R268 VTAIL.n44 VTAIL.n17 171.744
R269 VTAIL.n45 VTAIL.n44 171.744
R270 VTAIL.n46 VTAIL.n45 171.744
R271 VTAIL.n46 VTAIL.n13 171.744
R272 VTAIL.n53 VTAIL.n13 171.744
R273 VTAIL.n54 VTAIL.n53 171.744
R274 VTAIL.n54 VTAIL.n9 171.744
R275 VTAIL.n61 VTAIL.n9 171.744
R276 VTAIL.n62 VTAIL.n61 171.744
R277 VTAIL.n62 VTAIL.n5 171.744
R278 VTAIL.n69 VTAIL.n5 171.744
R279 VTAIL.n70 VTAIL.n69 171.744
R280 VTAIL.n102 VTAIL.n101 171.744
R281 VTAIL.n102 VTAIL.n95 171.744
R282 VTAIL.n109 VTAIL.n95 171.744
R283 VTAIL.n110 VTAIL.n109 171.744
R284 VTAIL.n110 VTAIL.n91 171.744
R285 VTAIL.n118 VTAIL.n91 171.744
R286 VTAIL.n119 VTAIL.n118 171.744
R287 VTAIL.n120 VTAIL.n119 171.744
R288 VTAIL.n120 VTAIL.n87 171.744
R289 VTAIL.n127 VTAIL.n87 171.744
R290 VTAIL.n128 VTAIL.n127 171.744
R291 VTAIL.n128 VTAIL.n83 171.744
R292 VTAIL.n135 VTAIL.n83 171.744
R293 VTAIL.n136 VTAIL.n135 171.744
R294 VTAIL.n136 VTAIL.n79 171.744
R295 VTAIL.n143 VTAIL.n79 171.744
R296 VTAIL.n144 VTAIL.n143 171.744
R297 VTAIL.n178 VTAIL.n177 171.744
R298 VTAIL.n178 VTAIL.n171 171.744
R299 VTAIL.n185 VTAIL.n171 171.744
R300 VTAIL.n186 VTAIL.n185 171.744
R301 VTAIL.n186 VTAIL.n167 171.744
R302 VTAIL.n194 VTAIL.n167 171.744
R303 VTAIL.n195 VTAIL.n194 171.744
R304 VTAIL.n196 VTAIL.n195 171.744
R305 VTAIL.n196 VTAIL.n163 171.744
R306 VTAIL.n203 VTAIL.n163 171.744
R307 VTAIL.n204 VTAIL.n203 171.744
R308 VTAIL.n204 VTAIL.n159 171.744
R309 VTAIL.n211 VTAIL.n159 171.744
R310 VTAIL.n212 VTAIL.n211 171.744
R311 VTAIL.n212 VTAIL.n155 171.744
R312 VTAIL.n219 VTAIL.n155 171.744
R313 VTAIL.n220 VTAIL.n219 171.744
R314 VTAIL.n520 VTAIL.n519 171.744
R315 VTAIL.n519 VTAIL.n455 171.744
R316 VTAIL.n512 VTAIL.n455 171.744
R317 VTAIL.n512 VTAIL.n511 171.744
R318 VTAIL.n511 VTAIL.n459 171.744
R319 VTAIL.n504 VTAIL.n459 171.744
R320 VTAIL.n504 VTAIL.n503 171.744
R321 VTAIL.n503 VTAIL.n463 171.744
R322 VTAIL.n468 VTAIL.n463 171.744
R323 VTAIL.n496 VTAIL.n468 171.744
R324 VTAIL.n496 VTAIL.n495 171.744
R325 VTAIL.n495 VTAIL.n469 171.744
R326 VTAIL.n488 VTAIL.n469 171.744
R327 VTAIL.n488 VTAIL.n487 171.744
R328 VTAIL.n487 VTAIL.n473 171.744
R329 VTAIL.n480 VTAIL.n473 171.744
R330 VTAIL.n480 VTAIL.n479 171.744
R331 VTAIL.n444 VTAIL.n443 171.744
R332 VTAIL.n443 VTAIL.n379 171.744
R333 VTAIL.n436 VTAIL.n379 171.744
R334 VTAIL.n436 VTAIL.n435 171.744
R335 VTAIL.n435 VTAIL.n383 171.744
R336 VTAIL.n428 VTAIL.n383 171.744
R337 VTAIL.n428 VTAIL.n427 171.744
R338 VTAIL.n427 VTAIL.n387 171.744
R339 VTAIL.n392 VTAIL.n387 171.744
R340 VTAIL.n420 VTAIL.n392 171.744
R341 VTAIL.n420 VTAIL.n419 171.744
R342 VTAIL.n419 VTAIL.n393 171.744
R343 VTAIL.n412 VTAIL.n393 171.744
R344 VTAIL.n412 VTAIL.n411 171.744
R345 VTAIL.n411 VTAIL.n397 171.744
R346 VTAIL.n404 VTAIL.n397 171.744
R347 VTAIL.n404 VTAIL.n403 171.744
R348 VTAIL.n370 VTAIL.n369 171.744
R349 VTAIL.n369 VTAIL.n305 171.744
R350 VTAIL.n362 VTAIL.n305 171.744
R351 VTAIL.n362 VTAIL.n361 171.744
R352 VTAIL.n361 VTAIL.n309 171.744
R353 VTAIL.n354 VTAIL.n309 171.744
R354 VTAIL.n354 VTAIL.n353 171.744
R355 VTAIL.n353 VTAIL.n313 171.744
R356 VTAIL.n318 VTAIL.n313 171.744
R357 VTAIL.n346 VTAIL.n318 171.744
R358 VTAIL.n346 VTAIL.n345 171.744
R359 VTAIL.n345 VTAIL.n319 171.744
R360 VTAIL.n338 VTAIL.n319 171.744
R361 VTAIL.n338 VTAIL.n337 171.744
R362 VTAIL.n337 VTAIL.n323 171.744
R363 VTAIL.n330 VTAIL.n323 171.744
R364 VTAIL.n330 VTAIL.n329 171.744
R365 VTAIL.n294 VTAIL.n293 171.744
R366 VTAIL.n293 VTAIL.n229 171.744
R367 VTAIL.n286 VTAIL.n229 171.744
R368 VTAIL.n286 VTAIL.n285 171.744
R369 VTAIL.n285 VTAIL.n233 171.744
R370 VTAIL.n278 VTAIL.n233 171.744
R371 VTAIL.n278 VTAIL.n277 171.744
R372 VTAIL.n277 VTAIL.n237 171.744
R373 VTAIL.n242 VTAIL.n237 171.744
R374 VTAIL.n270 VTAIL.n242 171.744
R375 VTAIL.n270 VTAIL.n269 171.744
R376 VTAIL.n269 VTAIL.n243 171.744
R377 VTAIL.n262 VTAIL.n243 171.744
R378 VTAIL.n262 VTAIL.n261 171.744
R379 VTAIL.n261 VTAIL.n247 171.744
R380 VTAIL.n254 VTAIL.n247 171.744
R381 VTAIL.n254 VTAIL.n253 171.744
R382 VTAIL.n551 VTAIL.t1 85.8723
R383 VTAIL.n27 VTAIL.t0 85.8723
R384 VTAIL.n101 VTAIL.t12 85.8723
R385 VTAIL.n177 VTAIL.t15 85.8723
R386 VTAIL.n479 VTAIL.t9 85.8723
R387 VTAIL.n403 VTAIL.t13 85.8723
R388 VTAIL.n329 VTAIL.t3 85.8723
R389 VTAIL.n253 VTAIL.t6 85.8723
R390 VTAIL.n451 VTAIL.n450 55.2142
R391 VTAIL.n301 VTAIL.n300 55.2142
R392 VTAIL.n1 VTAIL.n0 55.214
R393 VTAIL.n151 VTAIL.n150 55.214
R394 VTAIL.n599 VTAIL.n598 31.7975
R395 VTAIL.n75 VTAIL.n74 31.7975
R396 VTAIL.n149 VTAIL.n148 31.7975
R397 VTAIL.n225 VTAIL.n224 31.7975
R398 VTAIL.n525 VTAIL.n524 31.7975
R399 VTAIL.n449 VTAIL.n448 31.7975
R400 VTAIL.n375 VTAIL.n374 31.7975
R401 VTAIL.n299 VTAIL.n298 31.7975
R402 VTAIL.n599 VTAIL.n525 25.4962
R403 VTAIL.n299 VTAIL.n225 25.4962
R404 VTAIL.n571 VTAIL.n538 13.1884
R405 VTAIL.n47 VTAIL.n14 13.1884
R406 VTAIL.n121 VTAIL.n88 13.1884
R407 VTAIL.n197 VTAIL.n164 13.1884
R408 VTAIL.n466 VTAIL.n464 13.1884
R409 VTAIL.n390 VTAIL.n388 13.1884
R410 VTAIL.n316 VTAIL.n314 13.1884
R411 VTAIL.n240 VTAIL.n238 13.1884
R412 VTAIL.n572 VTAIL.n540 12.8005
R413 VTAIL.n576 VTAIL.n575 12.8005
R414 VTAIL.n48 VTAIL.n16 12.8005
R415 VTAIL.n52 VTAIL.n51 12.8005
R416 VTAIL.n122 VTAIL.n90 12.8005
R417 VTAIL.n126 VTAIL.n125 12.8005
R418 VTAIL.n198 VTAIL.n166 12.8005
R419 VTAIL.n202 VTAIL.n201 12.8005
R420 VTAIL.n502 VTAIL.n501 12.8005
R421 VTAIL.n498 VTAIL.n497 12.8005
R422 VTAIL.n426 VTAIL.n425 12.8005
R423 VTAIL.n422 VTAIL.n421 12.8005
R424 VTAIL.n352 VTAIL.n351 12.8005
R425 VTAIL.n348 VTAIL.n347 12.8005
R426 VTAIL.n276 VTAIL.n275 12.8005
R427 VTAIL.n272 VTAIL.n271 12.8005
R428 VTAIL.n567 VTAIL.n566 12.0247
R429 VTAIL.n579 VTAIL.n536 12.0247
R430 VTAIL.n43 VTAIL.n42 12.0247
R431 VTAIL.n55 VTAIL.n12 12.0247
R432 VTAIL.n117 VTAIL.n116 12.0247
R433 VTAIL.n129 VTAIL.n86 12.0247
R434 VTAIL.n193 VTAIL.n192 12.0247
R435 VTAIL.n205 VTAIL.n162 12.0247
R436 VTAIL.n505 VTAIL.n462 12.0247
R437 VTAIL.n494 VTAIL.n467 12.0247
R438 VTAIL.n429 VTAIL.n386 12.0247
R439 VTAIL.n418 VTAIL.n391 12.0247
R440 VTAIL.n355 VTAIL.n312 12.0247
R441 VTAIL.n344 VTAIL.n317 12.0247
R442 VTAIL.n279 VTAIL.n236 12.0247
R443 VTAIL.n268 VTAIL.n241 12.0247
R444 VTAIL.n565 VTAIL.n542 11.249
R445 VTAIL.n580 VTAIL.n534 11.249
R446 VTAIL.n41 VTAIL.n18 11.249
R447 VTAIL.n56 VTAIL.n10 11.249
R448 VTAIL.n115 VTAIL.n92 11.249
R449 VTAIL.n130 VTAIL.n84 11.249
R450 VTAIL.n191 VTAIL.n168 11.249
R451 VTAIL.n206 VTAIL.n160 11.249
R452 VTAIL.n506 VTAIL.n460 11.249
R453 VTAIL.n493 VTAIL.n470 11.249
R454 VTAIL.n430 VTAIL.n384 11.249
R455 VTAIL.n417 VTAIL.n394 11.249
R456 VTAIL.n356 VTAIL.n310 11.249
R457 VTAIL.n343 VTAIL.n320 11.249
R458 VTAIL.n280 VTAIL.n234 11.249
R459 VTAIL.n267 VTAIL.n244 11.249
R460 VTAIL.n550 VTAIL.n549 10.7239
R461 VTAIL.n26 VTAIL.n25 10.7239
R462 VTAIL.n100 VTAIL.n99 10.7239
R463 VTAIL.n176 VTAIL.n175 10.7239
R464 VTAIL.n478 VTAIL.n477 10.7239
R465 VTAIL.n402 VTAIL.n401 10.7239
R466 VTAIL.n328 VTAIL.n327 10.7239
R467 VTAIL.n252 VTAIL.n251 10.7239
R468 VTAIL.n562 VTAIL.n561 10.4732
R469 VTAIL.n584 VTAIL.n583 10.4732
R470 VTAIL.n38 VTAIL.n37 10.4732
R471 VTAIL.n60 VTAIL.n59 10.4732
R472 VTAIL.n112 VTAIL.n111 10.4732
R473 VTAIL.n134 VTAIL.n133 10.4732
R474 VTAIL.n188 VTAIL.n187 10.4732
R475 VTAIL.n210 VTAIL.n209 10.4732
R476 VTAIL.n510 VTAIL.n509 10.4732
R477 VTAIL.n490 VTAIL.n489 10.4732
R478 VTAIL.n434 VTAIL.n433 10.4732
R479 VTAIL.n414 VTAIL.n413 10.4732
R480 VTAIL.n360 VTAIL.n359 10.4732
R481 VTAIL.n340 VTAIL.n339 10.4732
R482 VTAIL.n284 VTAIL.n283 10.4732
R483 VTAIL.n264 VTAIL.n263 10.4732
R484 VTAIL.n558 VTAIL.n544 9.69747
R485 VTAIL.n587 VTAIL.n532 9.69747
R486 VTAIL.n34 VTAIL.n20 9.69747
R487 VTAIL.n63 VTAIL.n8 9.69747
R488 VTAIL.n108 VTAIL.n94 9.69747
R489 VTAIL.n137 VTAIL.n82 9.69747
R490 VTAIL.n184 VTAIL.n170 9.69747
R491 VTAIL.n213 VTAIL.n158 9.69747
R492 VTAIL.n513 VTAIL.n458 9.69747
R493 VTAIL.n486 VTAIL.n472 9.69747
R494 VTAIL.n437 VTAIL.n382 9.69747
R495 VTAIL.n410 VTAIL.n396 9.69747
R496 VTAIL.n363 VTAIL.n308 9.69747
R497 VTAIL.n336 VTAIL.n322 9.69747
R498 VTAIL.n287 VTAIL.n232 9.69747
R499 VTAIL.n260 VTAIL.n246 9.69747
R500 VTAIL.n598 VTAIL.n597 9.45567
R501 VTAIL.n74 VTAIL.n73 9.45567
R502 VTAIL.n148 VTAIL.n147 9.45567
R503 VTAIL.n224 VTAIL.n223 9.45567
R504 VTAIL.n524 VTAIL.n523 9.45567
R505 VTAIL.n448 VTAIL.n447 9.45567
R506 VTAIL.n374 VTAIL.n373 9.45567
R507 VTAIL.n298 VTAIL.n297 9.45567
R508 VTAIL.n597 VTAIL.n596 9.3005
R509 VTAIL.n591 VTAIL.n590 9.3005
R510 VTAIL.n589 VTAIL.n588 9.3005
R511 VTAIL.n532 VTAIL.n531 9.3005
R512 VTAIL.n583 VTAIL.n582 9.3005
R513 VTAIL.n581 VTAIL.n580 9.3005
R514 VTAIL.n536 VTAIL.n535 9.3005
R515 VTAIL.n575 VTAIL.n574 9.3005
R516 VTAIL.n548 VTAIL.n547 9.3005
R517 VTAIL.n555 VTAIL.n554 9.3005
R518 VTAIL.n557 VTAIL.n556 9.3005
R519 VTAIL.n544 VTAIL.n543 9.3005
R520 VTAIL.n563 VTAIL.n562 9.3005
R521 VTAIL.n565 VTAIL.n564 9.3005
R522 VTAIL.n566 VTAIL.n539 9.3005
R523 VTAIL.n573 VTAIL.n572 9.3005
R524 VTAIL.n528 VTAIL.n527 9.3005
R525 VTAIL.n73 VTAIL.n72 9.3005
R526 VTAIL.n67 VTAIL.n66 9.3005
R527 VTAIL.n65 VTAIL.n64 9.3005
R528 VTAIL.n8 VTAIL.n7 9.3005
R529 VTAIL.n59 VTAIL.n58 9.3005
R530 VTAIL.n57 VTAIL.n56 9.3005
R531 VTAIL.n12 VTAIL.n11 9.3005
R532 VTAIL.n51 VTAIL.n50 9.3005
R533 VTAIL.n24 VTAIL.n23 9.3005
R534 VTAIL.n31 VTAIL.n30 9.3005
R535 VTAIL.n33 VTAIL.n32 9.3005
R536 VTAIL.n20 VTAIL.n19 9.3005
R537 VTAIL.n39 VTAIL.n38 9.3005
R538 VTAIL.n41 VTAIL.n40 9.3005
R539 VTAIL.n42 VTAIL.n15 9.3005
R540 VTAIL.n49 VTAIL.n48 9.3005
R541 VTAIL.n4 VTAIL.n3 9.3005
R542 VTAIL.n147 VTAIL.n146 9.3005
R543 VTAIL.n141 VTAIL.n140 9.3005
R544 VTAIL.n139 VTAIL.n138 9.3005
R545 VTAIL.n82 VTAIL.n81 9.3005
R546 VTAIL.n133 VTAIL.n132 9.3005
R547 VTAIL.n131 VTAIL.n130 9.3005
R548 VTAIL.n86 VTAIL.n85 9.3005
R549 VTAIL.n125 VTAIL.n124 9.3005
R550 VTAIL.n98 VTAIL.n97 9.3005
R551 VTAIL.n105 VTAIL.n104 9.3005
R552 VTAIL.n107 VTAIL.n106 9.3005
R553 VTAIL.n94 VTAIL.n93 9.3005
R554 VTAIL.n113 VTAIL.n112 9.3005
R555 VTAIL.n115 VTAIL.n114 9.3005
R556 VTAIL.n116 VTAIL.n89 9.3005
R557 VTAIL.n123 VTAIL.n122 9.3005
R558 VTAIL.n78 VTAIL.n77 9.3005
R559 VTAIL.n223 VTAIL.n222 9.3005
R560 VTAIL.n217 VTAIL.n216 9.3005
R561 VTAIL.n215 VTAIL.n214 9.3005
R562 VTAIL.n158 VTAIL.n157 9.3005
R563 VTAIL.n209 VTAIL.n208 9.3005
R564 VTAIL.n207 VTAIL.n206 9.3005
R565 VTAIL.n162 VTAIL.n161 9.3005
R566 VTAIL.n201 VTAIL.n200 9.3005
R567 VTAIL.n174 VTAIL.n173 9.3005
R568 VTAIL.n181 VTAIL.n180 9.3005
R569 VTAIL.n183 VTAIL.n182 9.3005
R570 VTAIL.n170 VTAIL.n169 9.3005
R571 VTAIL.n189 VTAIL.n188 9.3005
R572 VTAIL.n191 VTAIL.n190 9.3005
R573 VTAIL.n192 VTAIL.n165 9.3005
R574 VTAIL.n199 VTAIL.n198 9.3005
R575 VTAIL.n154 VTAIL.n153 9.3005
R576 VTAIL.n476 VTAIL.n475 9.3005
R577 VTAIL.n483 VTAIL.n482 9.3005
R578 VTAIL.n485 VTAIL.n484 9.3005
R579 VTAIL.n472 VTAIL.n471 9.3005
R580 VTAIL.n491 VTAIL.n490 9.3005
R581 VTAIL.n493 VTAIL.n492 9.3005
R582 VTAIL.n467 VTAIL.n465 9.3005
R583 VTAIL.n499 VTAIL.n498 9.3005
R584 VTAIL.n523 VTAIL.n522 9.3005
R585 VTAIL.n454 VTAIL.n453 9.3005
R586 VTAIL.n517 VTAIL.n516 9.3005
R587 VTAIL.n515 VTAIL.n514 9.3005
R588 VTAIL.n458 VTAIL.n457 9.3005
R589 VTAIL.n509 VTAIL.n508 9.3005
R590 VTAIL.n507 VTAIL.n506 9.3005
R591 VTAIL.n462 VTAIL.n461 9.3005
R592 VTAIL.n501 VTAIL.n500 9.3005
R593 VTAIL.n400 VTAIL.n399 9.3005
R594 VTAIL.n407 VTAIL.n406 9.3005
R595 VTAIL.n409 VTAIL.n408 9.3005
R596 VTAIL.n396 VTAIL.n395 9.3005
R597 VTAIL.n415 VTAIL.n414 9.3005
R598 VTAIL.n417 VTAIL.n416 9.3005
R599 VTAIL.n391 VTAIL.n389 9.3005
R600 VTAIL.n423 VTAIL.n422 9.3005
R601 VTAIL.n447 VTAIL.n446 9.3005
R602 VTAIL.n378 VTAIL.n377 9.3005
R603 VTAIL.n441 VTAIL.n440 9.3005
R604 VTAIL.n439 VTAIL.n438 9.3005
R605 VTAIL.n382 VTAIL.n381 9.3005
R606 VTAIL.n433 VTAIL.n432 9.3005
R607 VTAIL.n431 VTAIL.n430 9.3005
R608 VTAIL.n386 VTAIL.n385 9.3005
R609 VTAIL.n425 VTAIL.n424 9.3005
R610 VTAIL.n326 VTAIL.n325 9.3005
R611 VTAIL.n333 VTAIL.n332 9.3005
R612 VTAIL.n335 VTAIL.n334 9.3005
R613 VTAIL.n322 VTAIL.n321 9.3005
R614 VTAIL.n341 VTAIL.n340 9.3005
R615 VTAIL.n343 VTAIL.n342 9.3005
R616 VTAIL.n317 VTAIL.n315 9.3005
R617 VTAIL.n349 VTAIL.n348 9.3005
R618 VTAIL.n373 VTAIL.n372 9.3005
R619 VTAIL.n304 VTAIL.n303 9.3005
R620 VTAIL.n367 VTAIL.n366 9.3005
R621 VTAIL.n365 VTAIL.n364 9.3005
R622 VTAIL.n308 VTAIL.n307 9.3005
R623 VTAIL.n359 VTAIL.n358 9.3005
R624 VTAIL.n357 VTAIL.n356 9.3005
R625 VTAIL.n312 VTAIL.n311 9.3005
R626 VTAIL.n351 VTAIL.n350 9.3005
R627 VTAIL.n250 VTAIL.n249 9.3005
R628 VTAIL.n257 VTAIL.n256 9.3005
R629 VTAIL.n259 VTAIL.n258 9.3005
R630 VTAIL.n246 VTAIL.n245 9.3005
R631 VTAIL.n265 VTAIL.n264 9.3005
R632 VTAIL.n267 VTAIL.n266 9.3005
R633 VTAIL.n241 VTAIL.n239 9.3005
R634 VTAIL.n273 VTAIL.n272 9.3005
R635 VTAIL.n297 VTAIL.n296 9.3005
R636 VTAIL.n228 VTAIL.n227 9.3005
R637 VTAIL.n291 VTAIL.n290 9.3005
R638 VTAIL.n289 VTAIL.n288 9.3005
R639 VTAIL.n232 VTAIL.n231 9.3005
R640 VTAIL.n283 VTAIL.n282 9.3005
R641 VTAIL.n281 VTAIL.n280 9.3005
R642 VTAIL.n236 VTAIL.n235 9.3005
R643 VTAIL.n275 VTAIL.n274 9.3005
R644 VTAIL.n557 VTAIL.n546 8.92171
R645 VTAIL.n588 VTAIL.n530 8.92171
R646 VTAIL.n33 VTAIL.n22 8.92171
R647 VTAIL.n64 VTAIL.n6 8.92171
R648 VTAIL.n107 VTAIL.n96 8.92171
R649 VTAIL.n138 VTAIL.n80 8.92171
R650 VTAIL.n183 VTAIL.n172 8.92171
R651 VTAIL.n214 VTAIL.n156 8.92171
R652 VTAIL.n514 VTAIL.n456 8.92171
R653 VTAIL.n485 VTAIL.n474 8.92171
R654 VTAIL.n438 VTAIL.n380 8.92171
R655 VTAIL.n409 VTAIL.n398 8.92171
R656 VTAIL.n364 VTAIL.n306 8.92171
R657 VTAIL.n335 VTAIL.n324 8.92171
R658 VTAIL.n288 VTAIL.n230 8.92171
R659 VTAIL.n259 VTAIL.n248 8.92171
R660 VTAIL.n554 VTAIL.n553 8.14595
R661 VTAIL.n592 VTAIL.n591 8.14595
R662 VTAIL.n30 VTAIL.n29 8.14595
R663 VTAIL.n68 VTAIL.n67 8.14595
R664 VTAIL.n104 VTAIL.n103 8.14595
R665 VTAIL.n142 VTAIL.n141 8.14595
R666 VTAIL.n180 VTAIL.n179 8.14595
R667 VTAIL.n218 VTAIL.n217 8.14595
R668 VTAIL.n518 VTAIL.n517 8.14595
R669 VTAIL.n482 VTAIL.n481 8.14595
R670 VTAIL.n442 VTAIL.n441 8.14595
R671 VTAIL.n406 VTAIL.n405 8.14595
R672 VTAIL.n368 VTAIL.n367 8.14595
R673 VTAIL.n332 VTAIL.n331 8.14595
R674 VTAIL.n292 VTAIL.n291 8.14595
R675 VTAIL.n256 VTAIL.n255 8.14595
R676 VTAIL.n550 VTAIL.n548 7.3702
R677 VTAIL.n595 VTAIL.n528 7.3702
R678 VTAIL.n598 VTAIL.n526 7.3702
R679 VTAIL.n26 VTAIL.n24 7.3702
R680 VTAIL.n71 VTAIL.n4 7.3702
R681 VTAIL.n74 VTAIL.n2 7.3702
R682 VTAIL.n100 VTAIL.n98 7.3702
R683 VTAIL.n145 VTAIL.n78 7.3702
R684 VTAIL.n148 VTAIL.n76 7.3702
R685 VTAIL.n176 VTAIL.n174 7.3702
R686 VTAIL.n221 VTAIL.n154 7.3702
R687 VTAIL.n224 VTAIL.n152 7.3702
R688 VTAIL.n524 VTAIL.n452 7.3702
R689 VTAIL.n521 VTAIL.n454 7.3702
R690 VTAIL.n478 VTAIL.n476 7.3702
R691 VTAIL.n448 VTAIL.n376 7.3702
R692 VTAIL.n445 VTAIL.n378 7.3702
R693 VTAIL.n402 VTAIL.n400 7.3702
R694 VTAIL.n374 VTAIL.n302 7.3702
R695 VTAIL.n371 VTAIL.n304 7.3702
R696 VTAIL.n328 VTAIL.n326 7.3702
R697 VTAIL.n298 VTAIL.n226 7.3702
R698 VTAIL.n295 VTAIL.n228 7.3702
R699 VTAIL.n252 VTAIL.n250 7.3702
R700 VTAIL.n596 VTAIL.n595 6.59444
R701 VTAIL.n596 VTAIL.n526 6.59444
R702 VTAIL.n72 VTAIL.n71 6.59444
R703 VTAIL.n72 VTAIL.n2 6.59444
R704 VTAIL.n146 VTAIL.n145 6.59444
R705 VTAIL.n146 VTAIL.n76 6.59444
R706 VTAIL.n222 VTAIL.n221 6.59444
R707 VTAIL.n222 VTAIL.n152 6.59444
R708 VTAIL.n522 VTAIL.n452 6.59444
R709 VTAIL.n522 VTAIL.n521 6.59444
R710 VTAIL.n446 VTAIL.n376 6.59444
R711 VTAIL.n446 VTAIL.n445 6.59444
R712 VTAIL.n372 VTAIL.n302 6.59444
R713 VTAIL.n372 VTAIL.n371 6.59444
R714 VTAIL.n296 VTAIL.n226 6.59444
R715 VTAIL.n296 VTAIL.n295 6.59444
R716 VTAIL.n553 VTAIL.n548 5.81868
R717 VTAIL.n592 VTAIL.n528 5.81868
R718 VTAIL.n29 VTAIL.n24 5.81868
R719 VTAIL.n68 VTAIL.n4 5.81868
R720 VTAIL.n103 VTAIL.n98 5.81868
R721 VTAIL.n142 VTAIL.n78 5.81868
R722 VTAIL.n179 VTAIL.n174 5.81868
R723 VTAIL.n218 VTAIL.n154 5.81868
R724 VTAIL.n518 VTAIL.n454 5.81868
R725 VTAIL.n481 VTAIL.n476 5.81868
R726 VTAIL.n442 VTAIL.n378 5.81868
R727 VTAIL.n405 VTAIL.n400 5.81868
R728 VTAIL.n368 VTAIL.n304 5.81868
R729 VTAIL.n331 VTAIL.n326 5.81868
R730 VTAIL.n292 VTAIL.n228 5.81868
R731 VTAIL.n255 VTAIL.n250 5.81868
R732 VTAIL.n554 VTAIL.n546 5.04292
R733 VTAIL.n591 VTAIL.n530 5.04292
R734 VTAIL.n30 VTAIL.n22 5.04292
R735 VTAIL.n67 VTAIL.n6 5.04292
R736 VTAIL.n104 VTAIL.n96 5.04292
R737 VTAIL.n141 VTAIL.n80 5.04292
R738 VTAIL.n180 VTAIL.n172 5.04292
R739 VTAIL.n217 VTAIL.n156 5.04292
R740 VTAIL.n517 VTAIL.n456 5.04292
R741 VTAIL.n482 VTAIL.n474 5.04292
R742 VTAIL.n441 VTAIL.n380 5.04292
R743 VTAIL.n406 VTAIL.n398 5.04292
R744 VTAIL.n367 VTAIL.n306 5.04292
R745 VTAIL.n332 VTAIL.n324 5.04292
R746 VTAIL.n291 VTAIL.n230 5.04292
R747 VTAIL.n256 VTAIL.n248 5.04292
R748 VTAIL.n558 VTAIL.n557 4.26717
R749 VTAIL.n588 VTAIL.n587 4.26717
R750 VTAIL.n34 VTAIL.n33 4.26717
R751 VTAIL.n64 VTAIL.n63 4.26717
R752 VTAIL.n108 VTAIL.n107 4.26717
R753 VTAIL.n138 VTAIL.n137 4.26717
R754 VTAIL.n184 VTAIL.n183 4.26717
R755 VTAIL.n214 VTAIL.n213 4.26717
R756 VTAIL.n514 VTAIL.n513 4.26717
R757 VTAIL.n486 VTAIL.n485 4.26717
R758 VTAIL.n438 VTAIL.n437 4.26717
R759 VTAIL.n410 VTAIL.n409 4.26717
R760 VTAIL.n364 VTAIL.n363 4.26717
R761 VTAIL.n336 VTAIL.n335 4.26717
R762 VTAIL.n288 VTAIL.n287 4.26717
R763 VTAIL.n260 VTAIL.n259 4.26717
R764 VTAIL.n561 VTAIL.n544 3.49141
R765 VTAIL.n584 VTAIL.n532 3.49141
R766 VTAIL.n37 VTAIL.n20 3.49141
R767 VTAIL.n60 VTAIL.n8 3.49141
R768 VTAIL.n111 VTAIL.n94 3.49141
R769 VTAIL.n134 VTAIL.n82 3.49141
R770 VTAIL.n187 VTAIL.n170 3.49141
R771 VTAIL.n210 VTAIL.n158 3.49141
R772 VTAIL.n510 VTAIL.n458 3.49141
R773 VTAIL.n489 VTAIL.n472 3.49141
R774 VTAIL.n434 VTAIL.n382 3.49141
R775 VTAIL.n413 VTAIL.n396 3.49141
R776 VTAIL.n360 VTAIL.n308 3.49141
R777 VTAIL.n339 VTAIL.n322 3.49141
R778 VTAIL.n284 VTAIL.n232 3.49141
R779 VTAIL.n263 VTAIL.n246 3.49141
R780 VTAIL.n562 VTAIL.n542 2.71565
R781 VTAIL.n583 VTAIL.n534 2.71565
R782 VTAIL.n38 VTAIL.n18 2.71565
R783 VTAIL.n59 VTAIL.n10 2.71565
R784 VTAIL.n112 VTAIL.n92 2.71565
R785 VTAIL.n133 VTAIL.n84 2.71565
R786 VTAIL.n188 VTAIL.n168 2.71565
R787 VTAIL.n209 VTAIL.n160 2.71565
R788 VTAIL.n509 VTAIL.n460 2.71565
R789 VTAIL.n490 VTAIL.n470 2.71565
R790 VTAIL.n433 VTAIL.n384 2.71565
R791 VTAIL.n414 VTAIL.n394 2.71565
R792 VTAIL.n359 VTAIL.n310 2.71565
R793 VTAIL.n340 VTAIL.n320 2.71565
R794 VTAIL.n283 VTAIL.n234 2.71565
R795 VTAIL.n264 VTAIL.n244 2.71565
R796 VTAIL.n549 VTAIL.n547 2.41282
R797 VTAIL.n25 VTAIL.n23 2.41282
R798 VTAIL.n99 VTAIL.n97 2.41282
R799 VTAIL.n175 VTAIL.n173 2.41282
R800 VTAIL.n477 VTAIL.n475 2.41282
R801 VTAIL.n401 VTAIL.n399 2.41282
R802 VTAIL.n327 VTAIL.n325 2.41282
R803 VTAIL.n251 VTAIL.n249 2.41282
R804 VTAIL.n0 VTAIL.t2 2.40116
R805 VTAIL.n0 VTAIL.t5 2.40116
R806 VTAIL.n150 VTAIL.t11 2.40116
R807 VTAIL.n150 VTAIL.t10 2.40116
R808 VTAIL.n450 VTAIL.t14 2.40116
R809 VTAIL.n450 VTAIL.t8 2.40116
R810 VTAIL.n300 VTAIL.t7 2.40116
R811 VTAIL.n300 VTAIL.t4 2.40116
R812 VTAIL.n567 VTAIL.n565 1.93989
R813 VTAIL.n580 VTAIL.n579 1.93989
R814 VTAIL.n43 VTAIL.n41 1.93989
R815 VTAIL.n56 VTAIL.n55 1.93989
R816 VTAIL.n117 VTAIL.n115 1.93989
R817 VTAIL.n130 VTAIL.n129 1.93989
R818 VTAIL.n193 VTAIL.n191 1.93989
R819 VTAIL.n206 VTAIL.n205 1.93989
R820 VTAIL.n506 VTAIL.n505 1.93989
R821 VTAIL.n494 VTAIL.n493 1.93989
R822 VTAIL.n430 VTAIL.n429 1.93989
R823 VTAIL.n418 VTAIL.n417 1.93989
R824 VTAIL.n356 VTAIL.n355 1.93989
R825 VTAIL.n344 VTAIL.n343 1.93989
R826 VTAIL.n280 VTAIL.n279 1.93989
R827 VTAIL.n268 VTAIL.n267 1.93989
R828 VTAIL.n301 VTAIL.n299 1.4574
R829 VTAIL.n375 VTAIL.n301 1.4574
R830 VTAIL.n451 VTAIL.n449 1.4574
R831 VTAIL.n525 VTAIL.n451 1.4574
R832 VTAIL.n225 VTAIL.n151 1.4574
R833 VTAIL.n151 VTAIL.n149 1.4574
R834 VTAIL.n75 VTAIL.n1 1.4574
R835 VTAIL VTAIL.n599 1.39921
R836 VTAIL.n566 VTAIL.n540 1.16414
R837 VTAIL.n576 VTAIL.n536 1.16414
R838 VTAIL.n42 VTAIL.n16 1.16414
R839 VTAIL.n52 VTAIL.n12 1.16414
R840 VTAIL.n116 VTAIL.n90 1.16414
R841 VTAIL.n126 VTAIL.n86 1.16414