* NGSPICE file created from diff_pair_sample_1583.ext - technology: sky130A

.subckt diff_pair_sample_1583 VTAIL VN VP B VDD2 VDD1
X0 B.t23 B.t21 B.t22 B.t15 sky130_fd_pr__nfet_01v8 ad=2.0982 pd=11.54 as=0 ps=0 w=5.38 l=2.43
X1 VDD1.t9 VP.t0 VTAIL.t10 B.t9 sky130_fd_pr__nfet_01v8 ad=0.8877 pd=5.71 as=2.0982 ps=11.54 w=5.38 l=2.43
X2 VDD1.t8 VP.t1 VTAIL.t19 B.t2 sky130_fd_pr__nfet_01v8 ad=0.8877 pd=5.71 as=2.0982 ps=11.54 w=5.38 l=2.43
X3 VTAIL.t17 VP.t2 VDD1.t7 B.t5 sky130_fd_pr__nfet_01v8 ad=0.8877 pd=5.71 as=0.8877 ps=5.71 w=5.38 l=2.43
X4 VDD2.t9 VN.t0 VTAIL.t8 B.t3 sky130_fd_pr__nfet_01v8 ad=0.8877 pd=5.71 as=0.8877 ps=5.71 w=5.38 l=2.43
X5 VDD2.t8 VN.t1 VTAIL.t0 B.t0 sky130_fd_pr__nfet_01v8 ad=0.8877 pd=5.71 as=0.8877 ps=5.71 w=5.38 l=2.43
X6 VDD1.t6 VP.t3 VTAIL.t11 B.t7 sky130_fd_pr__nfet_01v8 ad=2.0982 pd=11.54 as=0.8877 ps=5.71 w=5.38 l=2.43
X7 B.t20 B.t18 B.t19 B.t11 sky130_fd_pr__nfet_01v8 ad=2.0982 pd=11.54 as=0 ps=0 w=5.38 l=2.43
X8 VTAIL.t5 VN.t2 VDD2.t7 B.t8 sky130_fd_pr__nfet_01v8 ad=0.8877 pd=5.71 as=0.8877 ps=5.71 w=5.38 l=2.43
X9 VTAIL.t18 VP.t4 VDD1.t5 B.t1 sky130_fd_pr__nfet_01v8 ad=0.8877 pd=5.71 as=0.8877 ps=5.71 w=5.38 l=2.43
X10 VDD2.t6 VN.t3 VTAIL.t4 B.t7 sky130_fd_pr__nfet_01v8 ad=2.0982 pd=11.54 as=0.8877 ps=5.71 w=5.38 l=2.43
X11 VTAIL.t9 VN.t4 VDD2.t5 B.t5 sky130_fd_pr__nfet_01v8 ad=0.8877 pd=5.71 as=0.8877 ps=5.71 w=5.38 l=2.43
X12 B.t17 B.t14 B.t16 B.t15 sky130_fd_pr__nfet_01v8 ad=2.0982 pd=11.54 as=0 ps=0 w=5.38 l=2.43
X13 VTAIL.t12 VP.t5 VDD1.t4 B.t4 sky130_fd_pr__nfet_01v8 ad=0.8877 pd=5.71 as=0.8877 ps=5.71 w=5.38 l=2.43
X14 VDD1.t3 VP.t6 VTAIL.t15 B.t6 sky130_fd_pr__nfet_01v8 ad=2.0982 pd=11.54 as=0.8877 ps=5.71 w=5.38 l=2.43
X15 VDD2.t4 VN.t5 VTAIL.t3 B.t6 sky130_fd_pr__nfet_01v8 ad=2.0982 pd=11.54 as=0.8877 ps=5.71 w=5.38 l=2.43
X16 VDD2.t3 VN.t6 VTAIL.t2 B.t2 sky130_fd_pr__nfet_01v8 ad=0.8877 pd=5.71 as=2.0982 ps=11.54 w=5.38 l=2.43
X17 B.t13 B.t10 B.t12 B.t11 sky130_fd_pr__nfet_01v8 ad=2.0982 pd=11.54 as=0 ps=0 w=5.38 l=2.43
X18 VDD1.t2 VP.t7 VTAIL.t13 B.t3 sky130_fd_pr__nfet_01v8 ad=0.8877 pd=5.71 as=0.8877 ps=5.71 w=5.38 l=2.43
X19 VTAIL.t1 VN.t7 VDD2.t2 B.t4 sky130_fd_pr__nfet_01v8 ad=0.8877 pd=5.71 as=0.8877 ps=5.71 w=5.38 l=2.43
X20 VTAIL.t7 VN.t8 VDD2.t1 B.t1 sky130_fd_pr__nfet_01v8 ad=0.8877 pd=5.71 as=0.8877 ps=5.71 w=5.38 l=2.43
X21 VDD2.t0 VN.t9 VTAIL.t6 B.t9 sky130_fd_pr__nfet_01v8 ad=0.8877 pd=5.71 as=2.0982 ps=11.54 w=5.38 l=2.43
X22 VTAIL.t16 VP.t8 VDD1.t1 B.t8 sky130_fd_pr__nfet_01v8 ad=0.8877 pd=5.71 as=0.8877 ps=5.71 w=5.38 l=2.43
X23 VDD1.t0 VP.t9 VTAIL.t14 B.t0 sky130_fd_pr__nfet_01v8 ad=0.8877 pd=5.71 as=0.8877 ps=5.71 w=5.38 l=2.43
R0 B.n739 B.n738 585
R1 B.n242 B.n131 585
R2 B.n241 B.n240 585
R3 B.n239 B.n238 585
R4 B.n237 B.n236 585
R5 B.n235 B.n234 585
R6 B.n233 B.n232 585
R7 B.n231 B.n230 585
R8 B.n229 B.n228 585
R9 B.n227 B.n226 585
R10 B.n225 B.n224 585
R11 B.n223 B.n222 585
R12 B.n221 B.n220 585
R13 B.n219 B.n218 585
R14 B.n217 B.n216 585
R15 B.n215 B.n214 585
R16 B.n213 B.n212 585
R17 B.n211 B.n210 585
R18 B.n209 B.n208 585
R19 B.n207 B.n206 585
R20 B.n205 B.n204 585
R21 B.n203 B.n202 585
R22 B.n201 B.n200 585
R23 B.n199 B.n198 585
R24 B.n197 B.n196 585
R25 B.n195 B.n194 585
R26 B.n193 B.n192 585
R27 B.n191 B.n190 585
R28 B.n189 B.n188 585
R29 B.n187 B.n186 585
R30 B.n185 B.n184 585
R31 B.n183 B.n182 585
R32 B.n181 B.n180 585
R33 B.n179 B.n178 585
R34 B.n177 B.n176 585
R35 B.n175 B.n174 585
R36 B.n173 B.n172 585
R37 B.n171 B.n170 585
R38 B.n169 B.n168 585
R39 B.n167 B.n166 585
R40 B.n165 B.n164 585
R41 B.n163 B.n162 585
R42 B.n161 B.n160 585
R43 B.n159 B.n158 585
R44 B.n157 B.n156 585
R45 B.n155 B.n154 585
R46 B.n153 B.n152 585
R47 B.n151 B.n150 585
R48 B.n149 B.n148 585
R49 B.n147 B.n146 585
R50 B.n145 B.n144 585
R51 B.n143 B.n142 585
R52 B.n141 B.n140 585
R53 B.n139 B.n138 585
R54 B.n737 B.n104 585
R55 B.n742 B.n104 585
R56 B.n736 B.n103 585
R57 B.n743 B.n103 585
R58 B.n735 B.n734 585
R59 B.n734 B.n99 585
R60 B.n733 B.n98 585
R61 B.n749 B.n98 585
R62 B.n732 B.n97 585
R63 B.n750 B.n97 585
R64 B.n731 B.n96 585
R65 B.n751 B.n96 585
R66 B.n730 B.n729 585
R67 B.n729 B.n92 585
R68 B.n728 B.n91 585
R69 B.n757 B.n91 585
R70 B.n727 B.n90 585
R71 B.n758 B.n90 585
R72 B.n726 B.n89 585
R73 B.n759 B.n89 585
R74 B.n725 B.n724 585
R75 B.n724 B.n85 585
R76 B.n723 B.n84 585
R77 B.n765 B.n84 585
R78 B.n722 B.n83 585
R79 B.n766 B.n83 585
R80 B.n721 B.n82 585
R81 B.n767 B.n82 585
R82 B.n720 B.n719 585
R83 B.n719 B.n78 585
R84 B.n718 B.n77 585
R85 B.n773 B.n77 585
R86 B.n717 B.n76 585
R87 B.n774 B.n76 585
R88 B.n716 B.n75 585
R89 B.n775 B.n75 585
R90 B.n715 B.n714 585
R91 B.n714 B.n74 585
R92 B.n713 B.n70 585
R93 B.n781 B.n70 585
R94 B.n712 B.n69 585
R95 B.n782 B.n69 585
R96 B.n711 B.n68 585
R97 B.n783 B.n68 585
R98 B.n710 B.n709 585
R99 B.n709 B.n64 585
R100 B.n708 B.n63 585
R101 B.n789 B.n63 585
R102 B.n707 B.n62 585
R103 B.n790 B.n62 585
R104 B.n706 B.n61 585
R105 B.n791 B.n61 585
R106 B.n705 B.n704 585
R107 B.n704 B.n60 585
R108 B.n703 B.n56 585
R109 B.n797 B.n56 585
R110 B.n702 B.n55 585
R111 B.n798 B.n55 585
R112 B.n701 B.n54 585
R113 B.n799 B.n54 585
R114 B.n700 B.n699 585
R115 B.n699 B.n50 585
R116 B.n698 B.n49 585
R117 B.n805 B.n49 585
R118 B.n697 B.n48 585
R119 B.n806 B.n48 585
R120 B.n696 B.n47 585
R121 B.n807 B.n47 585
R122 B.n695 B.n694 585
R123 B.n694 B.n43 585
R124 B.n693 B.n42 585
R125 B.n813 B.n42 585
R126 B.n692 B.n41 585
R127 B.n814 B.n41 585
R128 B.n691 B.n40 585
R129 B.n815 B.n40 585
R130 B.n690 B.n689 585
R131 B.n689 B.n36 585
R132 B.n688 B.n35 585
R133 B.n821 B.n35 585
R134 B.n687 B.n34 585
R135 B.n822 B.n34 585
R136 B.n686 B.n33 585
R137 B.n823 B.n33 585
R138 B.n685 B.n684 585
R139 B.n684 B.n29 585
R140 B.n683 B.n28 585
R141 B.n829 B.n28 585
R142 B.n682 B.n27 585
R143 B.n830 B.n27 585
R144 B.n681 B.n26 585
R145 B.n831 B.n26 585
R146 B.n680 B.n679 585
R147 B.n679 B.n22 585
R148 B.n678 B.n21 585
R149 B.n837 B.n21 585
R150 B.n677 B.n20 585
R151 B.n838 B.n20 585
R152 B.n676 B.n19 585
R153 B.n839 B.n19 585
R154 B.n675 B.n674 585
R155 B.n674 B.n15 585
R156 B.n673 B.n14 585
R157 B.n845 B.n14 585
R158 B.n672 B.n13 585
R159 B.n846 B.n13 585
R160 B.n671 B.n12 585
R161 B.n847 B.n12 585
R162 B.n670 B.n669 585
R163 B.n669 B.n8 585
R164 B.n668 B.n7 585
R165 B.n853 B.n7 585
R166 B.n667 B.n6 585
R167 B.n854 B.n6 585
R168 B.n666 B.n5 585
R169 B.n855 B.n5 585
R170 B.n665 B.n664 585
R171 B.n664 B.n4 585
R172 B.n663 B.n243 585
R173 B.n663 B.n662 585
R174 B.n653 B.n244 585
R175 B.n245 B.n244 585
R176 B.n655 B.n654 585
R177 B.n656 B.n655 585
R178 B.n652 B.n250 585
R179 B.n250 B.n249 585
R180 B.n651 B.n650 585
R181 B.n650 B.n649 585
R182 B.n252 B.n251 585
R183 B.n253 B.n252 585
R184 B.n642 B.n641 585
R185 B.n643 B.n642 585
R186 B.n640 B.n258 585
R187 B.n258 B.n257 585
R188 B.n639 B.n638 585
R189 B.n638 B.n637 585
R190 B.n260 B.n259 585
R191 B.n261 B.n260 585
R192 B.n630 B.n629 585
R193 B.n631 B.n630 585
R194 B.n628 B.n266 585
R195 B.n266 B.n265 585
R196 B.n627 B.n626 585
R197 B.n626 B.n625 585
R198 B.n268 B.n267 585
R199 B.n269 B.n268 585
R200 B.n618 B.n617 585
R201 B.n619 B.n618 585
R202 B.n616 B.n274 585
R203 B.n274 B.n273 585
R204 B.n615 B.n614 585
R205 B.n614 B.n613 585
R206 B.n276 B.n275 585
R207 B.n277 B.n276 585
R208 B.n606 B.n605 585
R209 B.n607 B.n606 585
R210 B.n604 B.n282 585
R211 B.n282 B.n281 585
R212 B.n603 B.n602 585
R213 B.n602 B.n601 585
R214 B.n284 B.n283 585
R215 B.n285 B.n284 585
R216 B.n594 B.n593 585
R217 B.n595 B.n594 585
R218 B.n592 B.n290 585
R219 B.n290 B.n289 585
R220 B.n591 B.n590 585
R221 B.n590 B.n589 585
R222 B.n292 B.n291 585
R223 B.n293 B.n292 585
R224 B.n582 B.n581 585
R225 B.n583 B.n582 585
R226 B.n580 B.n298 585
R227 B.n298 B.n297 585
R228 B.n579 B.n578 585
R229 B.n578 B.n577 585
R230 B.n300 B.n299 585
R231 B.n570 B.n300 585
R232 B.n569 B.n568 585
R233 B.n571 B.n569 585
R234 B.n567 B.n305 585
R235 B.n305 B.n304 585
R236 B.n566 B.n565 585
R237 B.n565 B.n564 585
R238 B.n307 B.n306 585
R239 B.n308 B.n307 585
R240 B.n557 B.n556 585
R241 B.n558 B.n557 585
R242 B.n555 B.n313 585
R243 B.n313 B.n312 585
R244 B.n554 B.n553 585
R245 B.n553 B.n552 585
R246 B.n315 B.n314 585
R247 B.n545 B.n315 585
R248 B.n544 B.n543 585
R249 B.n546 B.n544 585
R250 B.n542 B.n320 585
R251 B.n320 B.n319 585
R252 B.n541 B.n540 585
R253 B.n540 B.n539 585
R254 B.n322 B.n321 585
R255 B.n323 B.n322 585
R256 B.n532 B.n531 585
R257 B.n533 B.n532 585
R258 B.n530 B.n328 585
R259 B.n328 B.n327 585
R260 B.n529 B.n528 585
R261 B.n528 B.n527 585
R262 B.n330 B.n329 585
R263 B.n331 B.n330 585
R264 B.n520 B.n519 585
R265 B.n521 B.n520 585
R266 B.n518 B.n336 585
R267 B.n336 B.n335 585
R268 B.n517 B.n516 585
R269 B.n516 B.n515 585
R270 B.n338 B.n337 585
R271 B.n339 B.n338 585
R272 B.n508 B.n507 585
R273 B.n509 B.n508 585
R274 B.n506 B.n344 585
R275 B.n344 B.n343 585
R276 B.n505 B.n504 585
R277 B.n504 B.n503 585
R278 B.n346 B.n345 585
R279 B.n347 B.n346 585
R280 B.n496 B.n495 585
R281 B.n497 B.n496 585
R282 B.n494 B.n352 585
R283 B.n352 B.n351 585
R284 B.n489 B.n488 585
R285 B.n487 B.n381 585
R286 B.n486 B.n380 585
R287 B.n491 B.n380 585
R288 B.n485 B.n484 585
R289 B.n483 B.n482 585
R290 B.n481 B.n480 585
R291 B.n479 B.n478 585
R292 B.n477 B.n476 585
R293 B.n475 B.n474 585
R294 B.n473 B.n472 585
R295 B.n471 B.n470 585
R296 B.n469 B.n468 585
R297 B.n467 B.n466 585
R298 B.n465 B.n464 585
R299 B.n463 B.n462 585
R300 B.n461 B.n460 585
R301 B.n459 B.n458 585
R302 B.n457 B.n456 585
R303 B.n455 B.n454 585
R304 B.n453 B.n452 585
R305 B.n451 B.n450 585
R306 B.n449 B.n448 585
R307 B.n446 B.n445 585
R308 B.n444 B.n443 585
R309 B.n442 B.n441 585
R310 B.n440 B.n439 585
R311 B.n438 B.n437 585
R312 B.n436 B.n435 585
R313 B.n434 B.n433 585
R314 B.n432 B.n431 585
R315 B.n430 B.n429 585
R316 B.n428 B.n427 585
R317 B.n425 B.n424 585
R318 B.n423 B.n422 585
R319 B.n421 B.n420 585
R320 B.n419 B.n418 585
R321 B.n417 B.n416 585
R322 B.n415 B.n414 585
R323 B.n413 B.n412 585
R324 B.n411 B.n410 585
R325 B.n409 B.n408 585
R326 B.n407 B.n406 585
R327 B.n405 B.n404 585
R328 B.n403 B.n402 585
R329 B.n401 B.n400 585
R330 B.n399 B.n398 585
R331 B.n397 B.n396 585
R332 B.n395 B.n394 585
R333 B.n393 B.n392 585
R334 B.n391 B.n390 585
R335 B.n389 B.n388 585
R336 B.n387 B.n386 585
R337 B.n354 B.n353 585
R338 B.n493 B.n492 585
R339 B.n492 B.n491 585
R340 B.n350 B.n349 585
R341 B.n351 B.n350 585
R342 B.n499 B.n498 585
R343 B.n498 B.n497 585
R344 B.n500 B.n348 585
R345 B.n348 B.n347 585
R346 B.n502 B.n501 585
R347 B.n503 B.n502 585
R348 B.n342 B.n341 585
R349 B.n343 B.n342 585
R350 B.n511 B.n510 585
R351 B.n510 B.n509 585
R352 B.n512 B.n340 585
R353 B.n340 B.n339 585
R354 B.n514 B.n513 585
R355 B.n515 B.n514 585
R356 B.n334 B.n333 585
R357 B.n335 B.n334 585
R358 B.n523 B.n522 585
R359 B.n522 B.n521 585
R360 B.n524 B.n332 585
R361 B.n332 B.n331 585
R362 B.n526 B.n525 585
R363 B.n527 B.n526 585
R364 B.n326 B.n325 585
R365 B.n327 B.n326 585
R366 B.n535 B.n534 585
R367 B.n534 B.n533 585
R368 B.n536 B.n324 585
R369 B.n324 B.n323 585
R370 B.n538 B.n537 585
R371 B.n539 B.n538 585
R372 B.n318 B.n317 585
R373 B.n319 B.n318 585
R374 B.n548 B.n547 585
R375 B.n547 B.n546 585
R376 B.n549 B.n316 585
R377 B.n545 B.n316 585
R378 B.n551 B.n550 585
R379 B.n552 B.n551 585
R380 B.n311 B.n310 585
R381 B.n312 B.n311 585
R382 B.n560 B.n559 585
R383 B.n559 B.n558 585
R384 B.n561 B.n309 585
R385 B.n309 B.n308 585
R386 B.n563 B.n562 585
R387 B.n564 B.n563 585
R388 B.n303 B.n302 585
R389 B.n304 B.n303 585
R390 B.n573 B.n572 585
R391 B.n572 B.n571 585
R392 B.n574 B.n301 585
R393 B.n570 B.n301 585
R394 B.n576 B.n575 585
R395 B.n577 B.n576 585
R396 B.n296 B.n295 585
R397 B.n297 B.n296 585
R398 B.n585 B.n584 585
R399 B.n584 B.n583 585
R400 B.n586 B.n294 585
R401 B.n294 B.n293 585
R402 B.n588 B.n587 585
R403 B.n589 B.n588 585
R404 B.n288 B.n287 585
R405 B.n289 B.n288 585
R406 B.n597 B.n596 585
R407 B.n596 B.n595 585
R408 B.n598 B.n286 585
R409 B.n286 B.n285 585
R410 B.n600 B.n599 585
R411 B.n601 B.n600 585
R412 B.n280 B.n279 585
R413 B.n281 B.n280 585
R414 B.n609 B.n608 585
R415 B.n608 B.n607 585
R416 B.n610 B.n278 585
R417 B.n278 B.n277 585
R418 B.n612 B.n611 585
R419 B.n613 B.n612 585
R420 B.n272 B.n271 585
R421 B.n273 B.n272 585
R422 B.n621 B.n620 585
R423 B.n620 B.n619 585
R424 B.n622 B.n270 585
R425 B.n270 B.n269 585
R426 B.n624 B.n623 585
R427 B.n625 B.n624 585
R428 B.n264 B.n263 585
R429 B.n265 B.n264 585
R430 B.n633 B.n632 585
R431 B.n632 B.n631 585
R432 B.n634 B.n262 585
R433 B.n262 B.n261 585
R434 B.n636 B.n635 585
R435 B.n637 B.n636 585
R436 B.n256 B.n255 585
R437 B.n257 B.n256 585
R438 B.n645 B.n644 585
R439 B.n644 B.n643 585
R440 B.n646 B.n254 585
R441 B.n254 B.n253 585
R442 B.n648 B.n647 585
R443 B.n649 B.n648 585
R444 B.n248 B.n247 585
R445 B.n249 B.n248 585
R446 B.n658 B.n657 585
R447 B.n657 B.n656 585
R448 B.n659 B.n246 585
R449 B.n246 B.n245 585
R450 B.n661 B.n660 585
R451 B.n662 B.n661 585
R452 B.n2 B.n0 585
R453 B.n4 B.n2 585
R454 B.n3 B.n1 585
R455 B.n854 B.n3 585
R456 B.n852 B.n851 585
R457 B.n853 B.n852 585
R458 B.n850 B.n9 585
R459 B.n9 B.n8 585
R460 B.n849 B.n848 585
R461 B.n848 B.n847 585
R462 B.n11 B.n10 585
R463 B.n846 B.n11 585
R464 B.n844 B.n843 585
R465 B.n845 B.n844 585
R466 B.n842 B.n16 585
R467 B.n16 B.n15 585
R468 B.n841 B.n840 585
R469 B.n840 B.n839 585
R470 B.n18 B.n17 585
R471 B.n838 B.n18 585
R472 B.n836 B.n835 585
R473 B.n837 B.n836 585
R474 B.n834 B.n23 585
R475 B.n23 B.n22 585
R476 B.n833 B.n832 585
R477 B.n832 B.n831 585
R478 B.n25 B.n24 585
R479 B.n830 B.n25 585
R480 B.n828 B.n827 585
R481 B.n829 B.n828 585
R482 B.n826 B.n30 585
R483 B.n30 B.n29 585
R484 B.n825 B.n824 585
R485 B.n824 B.n823 585
R486 B.n32 B.n31 585
R487 B.n822 B.n32 585
R488 B.n820 B.n819 585
R489 B.n821 B.n820 585
R490 B.n818 B.n37 585
R491 B.n37 B.n36 585
R492 B.n817 B.n816 585
R493 B.n816 B.n815 585
R494 B.n39 B.n38 585
R495 B.n814 B.n39 585
R496 B.n812 B.n811 585
R497 B.n813 B.n812 585
R498 B.n810 B.n44 585
R499 B.n44 B.n43 585
R500 B.n809 B.n808 585
R501 B.n808 B.n807 585
R502 B.n46 B.n45 585
R503 B.n806 B.n46 585
R504 B.n804 B.n803 585
R505 B.n805 B.n804 585
R506 B.n802 B.n51 585
R507 B.n51 B.n50 585
R508 B.n801 B.n800 585
R509 B.n800 B.n799 585
R510 B.n53 B.n52 585
R511 B.n798 B.n53 585
R512 B.n796 B.n795 585
R513 B.n797 B.n796 585
R514 B.n794 B.n57 585
R515 B.n60 B.n57 585
R516 B.n793 B.n792 585
R517 B.n792 B.n791 585
R518 B.n59 B.n58 585
R519 B.n790 B.n59 585
R520 B.n788 B.n787 585
R521 B.n789 B.n788 585
R522 B.n786 B.n65 585
R523 B.n65 B.n64 585
R524 B.n785 B.n784 585
R525 B.n784 B.n783 585
R526 B.n67 B.n66 585
R527 B.n782 B.n67 585
R528 B.n780 B.n779 585
R529 B.n781 B.n780 585
R530 B.n778 B.n71 585
R531 B.n74 B.n71 585
R532 B.n777 B.n776 585
R533 B.n776 B.n775 585
R534 B.n73 B.n72 585
R535 B.n774 B.n73 585
R536 B.n772 B.n771 585
R537 B.n773 B.n772 585
R538 B.n770 B.n79 585
R539 B.n79 B.n78 585
R540 B.n769 B.n768 585
R541 B.n768 B.n767 585
R542 B.n81 B.n80 585
R543 B.n766 B.n81 585
R544 B.n764 B.n763 585
R545 B.n765 B.n764 585
R546 B.n762 B.n86 585
R547 B.n86 B.n85 585
R548 B.n761 B.n760 585
R549 B.n760 B.n759 585
R550 B.n88 B.n87 585
R551 B.n758 B.n88 585
R552 B.n756 B.n755 585
R553 B.n757 B.n756 585
R554 B.n754 B.n93 585
R555 B.n93 B.n92 585
R556 B.n753 B.n752 585
R557 B.n752 B.n751 585
R558 B.n95 B.n94 585
R559 B.n750 B.n95 585
R560 B.n748 B.n747 585
R561 B.n749 B.n748 585
R562 B.n746 B.n100 585
R563 B.n100 B.n99 585
R564 B.n745 B.n744 585
R565 B.n744 B.n743 585
R566 B.n102 B.n101 585
R567 B.n742 B.n102 585
R568 B.n857 B.n856 585
R569 B.n856 B.n855 585
R570 B.n489 B.n350 458.866
R571 B.n138 B.n102 458.866
R572 B.n492 B.n352 458.866
R573 B.n739 B.n104 458.866
R574 B.n384 B.t21 261.132
R575 B.n382 B.t14 261.132
R576 B.n135 B.t18 261.132
R577 B.n132 B.t10 261.132
R578 B.n741 B.n740 256.663
R579 B.n741 B.n130 256.663
R580 B.n741 B.n129 256.663
R581 B.n741 B.n128 256.663
R582 B.n741 B.n127 256.663
R583 B.n741 B.n126 256.663
R584 B.n741 B.n125 256.663
R585 B.n741 B.n124 256.663
R586 B.n741 B.n123 256.663
R587 B.n741 B.n122 256.663
R588 B.n741 B.n121 256.663
R589 B.n741 B.n120 256.663
R590 B.n741 B.n119 256.663
R591 B.n741 B.n118 256.663
R592 B.n741 B.n117 256.663
R593 B.n741 B.n116 256.663
R594 B.n741 B.n115 256.663
R595 B.n741 B.n114 256.663
R596 B.n741 B.n113 256.663
R597 B.n741 B.n112 256.663
R598 B.n741 B.n111 256.663
R599 B.n741 B.n110 256.663
R600 B.n741 B.n109 256.663
R601 B.n741 B.n108 256.663
R602 B.n741 B.n107 256.663
R603 B.n741 B.n106 256.663
R604 B.n741 B.n105 256.663
R605 B.n491 B.n490 256.663
R606 B.n491 B.n355 256.663
R607 B.n491 B.n356 256.663
R608 B.n491 B.n357 256.663
R609 B.n491 B.n358 256.663
R610 B.n491 B.n359 256.663
R611 B.n491 B.n360 256.663
R612 B.n491 B.n361 256.663
R613 B.n491 B.n362 256.663
R614 B.n491 B.n363 256.663
R615 B.n491 B.n364 256.663
R616 B.n491 B.n365 256.663
R617 B.n491 B.n366 256.663
R618 B.n491 B.n367 256.663
R619 B.n491 B.n368 256.663
R620 B.n491 B.n369 256.663
R621 B.n491 B.n370 256.663
R622 B.n491 B.n371 256.663
R623 B.n491 B.n372 256.663
R624 B.n491 B.n373 256.663
R625 B.n491 B.n374 256.663
R626 B.n491 B.n375 256.663
R627 B.n491 B.n376 256.663
R628 B.n491 B.n377 256.663
R629 B.n491 B.n378 256.663
R630 B.n491 B.n379 256.663
R631 B.n384 B.t23 222.041
R632 B.n132 B.t12 222.041
R633 B.n382 B.t17 222.041
R634 B.n135 B.t19 222.041
R635 B.n385 B.t22 168.513
R636 B.n133 B.t13 168.513
R637 B.n383 B.t16 168.513
R638 B.n136 B.t20 168.513
R639 B.n498 B.n350 163.367
R640 B.n498 B.n348 163.367
R641 B.n502 B.n348 163.367
R642 B.n502 B.n342 163.367
R643 B.n510 B.n342 163.367
R644 B.n510 B.n340 163.367
R645 B.n514 B.n340 163.367
R646 B.n514 B.n334 163.367
R647 B.n522 B.n334 163.367
R648 B.n522 B.n332 163.367
R649 B.n526 B.n332 163.367
R650 B.n526 B.n326 163.367
R651 B.n534 B.n326 163.367
R652 B.n534 B.n324 163.367
R653 B.n538 B.n324 163.367
R654 B.n538 B.n318 163.367
R655 B.n547 B.n318 163.367
R656 B.n547 B.n316 163.367
R657 B.n551 B.n316 163.367
R658 B.n551 B.n311 163.367
R659 B.n559 B.n311 163.367
R660 B.n559 B.n309 163.367
R661 B.n563 B.n309 163.367
R662 B.n563 B.n303 163.367
R663 B.n572 B.n303 163.367
R664 B.n572 B.n301 163.367
R665 B.n576 B.n301 163.367
R666 B.n576 B.n296 163.367
R667 B.n584 B.n296 163.367
R668 B.n584 B.n294 163.367
R669 B.n588 B.n294 163.367
R670 B.n588 B.n288 163.367
R671 B.n596 B.n288 163.367
R672 B.n596 B.n286 163.367
R673 B.n600 B.n286 163.367
R674 B.n600 B.n280 163.367
R675 B.n608 B.n280 163.367
R676 B.n608 B.n278 163.367
R677 B.n612 B.n278 163.367
R678 B.n612 B.n272 163.367
R679 B.n620 B.n272 163.367
R680 B.n620 B.n270 163.367
R681 B.n624 B.n270 163.367
R682 B.n624 B.n264 163.367
R683 B.n632 B.n264 163.367
R684 B.n632 B.n262 163.367
R685 B.n636 B.n262 163.367
R686 B.n636 B.n256 163.367
R687 B.n644 B.n256 163.367
R688 B.n644 B.n254 163.367
R689 B.n648 B.n254 163.367
R690 B.n648 B.n248 163.367
R691 B.n657 B.n248 163.367
R692 B.n657 B.n246 163.367
R693 B.n661 B.n246 163.367
R694 B.n661 B.n2 163.367
R695 B.n856 B.n2 163.367
R696 B.n856 B.n3 163.367
R697 B.n852 B.n3 163.367
R698 B.n852 B.n9 163.367
R699 B.n848 B.n9 163.367
R700 B.n848 B.n11 163.367
R701 B.n844 B.n11 163.367
R702 B.n844 B.n16 163.367
R703 B.n840 B.n16 163.367
R704 B.n840 B.n18 163.367
R705 B.n836 B.n18 163.367
R706 B.n836 B.n23 163.367
R707 B.n832 B.n23 163.367
R708 B.n832 B.n25 163.367
R709 B.n828 B.n25 163.367
R710 B.n828 B.n30 163.367
R711 B.n824 B.n30 163.367
R712 B.n824 B.n32 163.367
R713 B.n820 B.n32 163.367
R714 B.n820 B.n37 163.367
R715 B.n816 B.n37 163.367
R716 B.n816 B.n39 163.367
R717 B.n812 B.n39 163.367
R718 B.n812 B.n44 163.367
R719 B.n808 B.n44 163.367
R720 B.n808 B.n46 163.367
R721 B.n804 B.n46 163.367
R722 B.n804 B.n51 163.367
R723 B.n800 B.n51 163.367
R724 B.n800 B.n53 163.367
R725 B.n796 B.n53 163.367
R726 B.n796 B.n57 163.367
R727 B.n792 B.n57 163.367
R728 B.n792 B.n59 163.367
R729 B.n788 B.n59 163.367
R730 B.n788 B.n65 163.367
R731 B.n784 B.n65 163.367
R732 B.n784 B.n67 163.367
R733 B.n780 B.n67 163.367
R734 B.n780 B.n71 163.367
R735 B.n776 B.n71 163.367
R736 B.n776 B.n73 163.367
R737 B.n772 B.n73 163.367
R738 B.n772 B.n79 163.367
R739 B.n768 B.n79 163.367
R740 B.n768 B.n81 163.367
R741 B.n764 B.n81 163.367
R742 B.n764 B.n86 163.367
R743 B.n760 B.n86 163.367
R744 B.n760 B.n88 163.367
R745 B.n756 B.n88 163.367
R746 B.n756 B.n93 163.367
R747 B.n752 B.n93 163.367
R748 B.n752 B.n95 163.367
R749 B.n748 B.n95 163.367
R750 B.n748 B.n100 163.367
R751 B.n744 B.n100 163.367
R752 B.n744 B.n102 163.367
R753 B.n381 B.n380 163.367
R754 B.n484 B.n380 163.367
R755 B.n482 B.n481 163.367
R756 B.n478 B.n477 163.367
R757 B.n474 B.n473 163.367
R758 B.n470 B.n469 163.367
R759 B.n466 B.n465 163.367
R760 B.n462 B.n461 163.367
R761 B.n458 B.n457 163.367
R762 B.n454 B.n453 163.367
R763 B.n450 B.n449 163.367
R764 B.n445 B.n444 163.367
R765 B.n441 B.n440 163.367
R766 B.n437 B.n436 163.367
R767 B.n433 B.n432 163.367
R768 B.n429 B.n428 163.367
R769 B.n424 B.n423 163.367
R770 B.n420 B.n419 163.367
R771 B.n416 B.n415 163.367
R772 B.n412 B.n411 163.367
R773 B.n408 B.n407 163.367
R774 B.n404 B.n403 163.367
R775 B.n400 B.n399 163.367
R776 B.n396 B.n395 163.367
R777 B.n392 B.n391 163.367
R778 B.n388 B.n387 163.367
R779 B.n492 B.n354 163.367
R780 B.n496 B.n352 163.367
R781 B.n496 B.n346 163.367
R782 B.n504 B.n346 163.367
R783 B.n504 B.n344 163.367
R784 B.n508 B.n344 163.367
R785 B.n508 B.n338 163.367
R786 B.n516 B.n338 163.367
R787 B.n516 B.n336 163.367
R788 B.n520 B.n336 163.367
R789 B.n520 B.n330 163.367
R790 B.n528 B.n330 163.367
R791 B.n528 B.n328 163.367
R792 B.n532 B.n328 163.367
R793 B.n532 B.n322 163.367
R794 B.n540 B.n322 163.367
R795 B.n540 B.n320 163.367
R796 B.n544 B.n320 163.367
R797 B.n544 B.n315 163.367
R798 B.n553 B.n315 163.367
R799 B.n553 B.n313 163.367
R800 B.n557 B.n313 163.367
R801 B.n557 B.n307 163.367
R802 B.n565 B.n307 163.367
R803 B.n565 B.n305 163.367
R804 B.n569 B.n305 163.367
R805 B.n569 B.n300 163.367
R806 B.n578 B.n300 163.367
R807 B.n578 B.n298 163.367
R808 B.n582 B.n298 163.367
R809 B.n582 B.n292 163.367
R810 B.n590 B.n292 163.367
R811 B.n590 B.n290 163.367
R812 B.n594 B.n290 163.367
R813 B.n594 B.n284 163.367
R814 B.n602 B.n284 163.367
R815 B.n602 B.n282 163.367
R816 B.n606 B.n282 163.367
R817 B.n606 B.n276 163.367
R818 B.n614 B.n276 163.367
R819 B.n614 B.n274 163.367
R820 B.n618 B.n274 163.367
R821 B.n618 B.n268 163.367
R822 B.n626 B.n268 163.367
R823 B.n626 B.n266 163.367
R824 B.n630 B.n266 163.367
R825 B.n630 B.n260 163.367
R826 B.n638 B.n260 163.367
R827 B.n638 B.n258 163.367
R828 B.n642 B.n258 163.367
R829 B.n642 B.n252 163.367
R830 B.n650 B.n252 163.367
R831 B.n650 B.n250 163.367
R832 B.n655 B.n250 163.367
R833 B.n655 B.n244 163.367
R834 B.n663 B.n244 163.367
R835 B.n664 B.n663 163.367
R836 B.n664 B.n5 163.367
R837 B.n6 B.n5 163.367
R838 B.n7 B.n6 163.367
R839 B.n669 B.n7 163.367
R840 B.n669 B.n12 163.367
R841 B.n13 B.n12 163.367
R842 B.n14 B.n13 163.367
R843 B.n674 B.n14 163.367
R844 B.n674 B.n19 163.367
R845 B.n20 B.n19 163.367
R846 B.n21 B.n20 163.367
R847 B.n679 B.n21 163.367
R848 B.n679 B.n26 163.367
R849 B.n27 B.n26 163.367
R850 B.n28 B.n27 163.367
R851 B.n684 B.n28 163.367
R852 B.n684 B.n33 163.367
R853 B.n34 B.n33 163.367
R854 B.n35 B.n34 163.367
R855 B.n689 B.n35 163.367
R856 B.n689 B.n40 163.367
R857 B.n41 B.n40 163.367
R858 B.n42 B.n41 163.367
R859 B.n694 B.n42 163.367
R860 B.n694 B.n47 163.367
R861 B.n48 B.n47 163.367
R862 B.n49 B.n48 163.367
R863 B.n699 B.n49 163.367
R864 B.n699 B.n54 163.367
R865 B.n55 B.n54 163.367
R866 B.n56 B.n55 163.367
R867 B.n704 B.n56 163.367
R868 B.n704 B.n61 163.367
R869 B.n62 B.n61 163.367
R870 B.n63 B.n62 163.367
R871 B.n709 B.n63 163.367
R872 B.n709 B.n68 163.367
R873 B.n69 B.n68 163.367
R874 B.n70 B.n69 163.367
R875 B.n714 B.n70 163.367
R876 B.n714 B.n75 163.367
R877 B.n76 B.n75 163.367
R878 B.n77 B.n76 163.367
R879 B.n719 B.n77 163.367
R880 B.n719 B.n82 163.367
R881 B.n83 B.n82 163.367
R882 B.n84 B.n83 163.367
R883 B.n724 B.n84 163.367
R884 B.n724 B.n89 163.367
R885 B.n90 B.n89 163.367
R886 B.n91 B.n90 163.367
R887 B.n729 B.n91 163.367
R888 B.n729 B.n96 163.367
R889 B.n97 B.n96 163.367
R890 B.n98 B.n97 163.367
R891 B.n734 B.n98 163.367
R892 B.n734 B.n103 163.367
R893 B.n104 B.n103 163.367
R894 B.n142 B.n141 163.367
R895 B.n146 B.n145 163.367
R896 B.n150 B.n149 163.367
R897 B.n154 B.n153 163.367
R898 B.n158 B.n157 163.367
R899 B.n162 B.n161 163.367
R900 B.n166 B.n165 163.367
R901 B.n170 B.n169 163.367
R902 B.n174 B.n173 163.367
R903 B.n178 B.n177 163.367
R904 B.n182 B.n181 163.367
R905 B.n186 B.n185 163.367
R906 B.n190 B.n189 163.367
R907 B.n194 B.n193 163.367
R908 B.n198 B.n197 163.367
R909 B.n202 B.n201 163.367
R910 B.n206 B.n205 163.367
R911 B.n210 B.n209 163.367
R912 B.n214 B.n213 163.367
R913 B.n218 B.n217 163.367
R914 B.n222 B.n221 163.367
R915 B.n226 B.n225 163.367
R916 B.n230 B.n229 163.367
R917 B.n234 B.n233 163.367
R918 B.n238 B.n237 163.367
R919 B.n240 B.n131 163.367
R920 B.n491 B.n351 114.594
R921 B.n742 B.n741 114.594
R922 B.n490 B.n489 71.676
R923 B.n484 B.n355 71.676
R924 B.n481 B.n356 71.676
R925 B.n477 B.n357 71.676
R926 B.n473 B.n358 71.676
R927 B.n469 B.n359 71.676
R928 B.n465 B.n360 71.676
R929 B.n461 B.n361 71.676
R930 B.n457 B.n362 71.676
R931 B.n453 B.n363 71.676
R932 B.n449 B.n364 71.676
R933 B.n444 B.n365 71.676
R934 B.n440 B.n366 71.676
R935 B.n436 B.n367 71.676
R936 B.n432 B.n368 71.676
R937 B.n428 B.n369 71.676
R938 B.n423 B.n370 71.676
R939 B.n419 B.n371 71.676
R940 B.n415 B.n372 71.676
R941 B.n411 B.n373 71.676
R942 B.n407 B.n374 71.676
R943 B.n403 B.n375 71.676
R944 B.n399 B.n376 71.676
R945 B.n395 B.n377 71.676
R946 B.n391 B.n378 71.676
R947 B.n387 B.n379 71.676
R948 B.n138 B.n105 71.676
R949 B.n142 B.n106 71.676
R950 B.n146 B.n107 71.676
R951 B.n150 B.n108 71.676
R952 B.n154 B.n109 71.676
R953 B.n158 B.n110 71.676
R954 B.n162 B.n111 71.676
R955 B.n166 B.n112 71.676
R956 B.n170 B.n113 71.676
R957 B.n174 B.n114 71.676
R958 B.n178 B.n115 71.676
R959 B.n182 B.n116 71.676
R960 B.n186 B.n117 71.676
R961 B.n190 B.n118 71.676
R962 B.n194 B.n119 71.676
R963 B.n198 B.n120 71.676
R964 B.n202 B.n121 71.676
R965 B.n206 B.n122 71.676
R966 B.n210 B.n123 71.676
R967 B.n214 B.n124 71.676
R968 B.n218 B.n125 71.676
R969 B.n222 B.n126 71.676
R970 B.n226 B.n127 71.676
R971 B.n230 B.n128 71.676
R972 B.n234 B.n129 71.676
R973 B.n238 B.n130 71.676
R974 B.n740 B.n131 71.676
R975 B.n740 B.n739 71.676
R976 B.n240 B.n130 71.676
R977 B.n237 B.n129 71.676
R978 B.n233 B.n128 71.676
R979 B.n229 B.n127 71.676
R980 B.n225 B.n126 71.676
R981 B.n221 B.n125 71.676
R982 B.n217 B.n124 71.676
R983 B.n213 B.n123 71.676
R984 B.n209 B.n122 71.676
R985 B.n205 B.n121 71.676
R986 B.n201 B.n120 71.676
R987 B.n197 B.n119 71.676
R988 B.n193 B.n118 71.676
R989 B.n189 B.n117 71.676
R990 B.n185 B.n116 71.676
R991 B.n181 B.n115 71.676
R992 B.n177 B.n114 71.676
R993 B.n173 B.n113 71.676
R994 B.n169 B.n112 71.676
R995 B.n165 B.n111 71.676
R996 B.n161 B.n110 71.676
R997 B.n157 B.n109 71.676
R998 B.n153 B.n108 71.676
R999 B.n149 B.n107 71.676
R1000 B.n145 B.n106 71.676
R1001 B.n141 B.n105 71.676
R1002 B.n490 B.n381 71.676
R1003 B.n482 B.n355 71.676
R1004 B.n478 B.n356 71.676
R1005 B.n474 B.n357 71.676
R1006 B.n470 B.n358 71.676
R1007 B.n466 B.n359 71.676
R1008 B.n462 B.n360 71.676
R1009 B.n458 B.n361 71.676
R1010 B.n454 B.n362 71.676
R1011 B.n450 B.n363 71.676
R1012 B.n445 B.n364 71.676
R1013 B.n441 B.n365 71.676
R1014 B.n437 B.n366 71.676
R1015 B.n433 B.n367 71.676
R1016 B.n429 B.n368 71.676
R1017 B.n424 B.n369 71.676
R1018 B.n420 B.n370 71.676
R1019 B.n416 B.n371 71.676
R1020 B.n412 B.n372 71.676
R1021 B.n408 B.n373 71.676
R1022 B.n404 B.n374 71.676
R1023 B.n400 B.n375 71.676
R1024 B.n396 B.n376 71.676
R1025 B.n392 B.n377 71.676
R1026 B.n388 B.n378 71.676
R1027 B.n379 B.n354 71.676
R1028 B.n497 B.n351 70.2023
R1029 B.n497 B.n347 70.2023
R1030 B.n503 B.n347 70.2023
R1031 B.n503 B.n343 70.2023
R1032 B.n509 B.n343 70.2023
R1033 B.n509 B.n339 70.2023
R1034 B.n515 B.n339 70.2023
R1035 B.n521 B.n335 70.2023
R1036 B.n521 B.n331 70.2023
R1037 B.n527 B.n331 70.2023
R1038 B.n527 B.n327 70.2023
R1039 B.n533 B.n327 70.2023
R1040 B.n533 B.n323 70.2023
R1041 B.n539 B.n323 70.2023
R1042 B.n539 B.n319 70.2023
R1043 B.n546 B.n319 70.2023
R1044 B.n546 B.n545 70.2023
R1045 B.n552 B.n312 70.2023
R1046 B.n558 B.n312 70.2023
R1047 B.n558 B.n308 70.2023
R1048 B.n564 B.n308 70.2023
R1049 B.n564 B.n304 70.2023
R1050 B.n571 B.n304 70.2023
R1051 B.n571 B.n570 70.2023
R1052 B.n577 B.n297 70.2023
R1053 B.n583 B.n297 70.2023
R1054 B.n583 B.n293 70.2023
R1055 B.n589 B.n293 70.2023
R1056 B.n589 B.n289 70.2023
R1057 B.n595 B.n289 70.2023
R1058 B.n595 B.n285 70.2023
R1059 B.n601 B.n285 70.2023
R1060 B.n607 B.n281 70.2023
R1061 B.n607 B.n277 70.2023
R1062 B.n613 B.n277 70.2023
R1063 B.n613 B.n273 70.2023
R1064 B.n619 B.n273 70.2023
R1065 B.n619 B.n269 70.2023
R1066 B.n625 B.n269 70.2023
R1067 B.n631 B.n265 70.2023
R1068 B.n631 B.n261 70.2023
R1069 B.n637 B.n261 70.2023
R1070 B.n637 B.n257 70.2023
R1071 B.n643 B.n257 70.2023
R1072 B.n643 B.n253 70.2023
R1073 B.n649 B.n253 70.2023
R1074 B.n656 B.n249 70.2023
R1075 B.n656 B.n245 70.2023
R1076 B.n662 B.n245 70.2023
R1077 B.n662 B.n4 70.2023
R1078 B.n855 B.n4 70.2023
R1079 B.n855 B.n854 70.2023
R1080 B.n854 B.n853 70.2023
R1081 B.n853 B.n8 70.2023
R1082 B.n847 B.n8 70.2023
R1083 B.n847 B.n846 70.2023
R1084 B.n845 B.n15 70.2023
R1085 B.n839 B.n15 70.2023
R1086 B.n839 B.n838 70.2023
R1087 B.n838 B.n837 70.2023
R1088 B.n837 B.n22 70.2023
R1089 B.n831 B.n22 70.2023
R1090 B.n831 B.n830 70.2023
R1091 B.n829 B.n29 70.2023
R1092 B.n823 B.n29 70.2023
R1093 B.n823 B.n822 70.2023
R1094 B.n822 B.n821 70.2023
R1095 B.n821 B.n36 70.2023
R1096 B.n815 B.n36 70.2023
R1097 B.n815 B.n814 70.2023
R1098 B.n813 B.n43 70.2023
R1099 B.n807 B.n43 70.2023
R1100 B.n807 B.n806 70.2023
R1101 B.n806 B.n805 70.2023
R1102 B.n805 B.n50 70.2023
R1103 B.n799 B.n50 70.2023
R1104 B.n799 B.n798 70.2023
R1105 B.n798 B.n797 70.2023
R1106 B.n791 B.n60 70.2023
R1107 B.n791 B.n790 70.2023
R1108 B.n790 B.n789 70.2023
R1109 B.n789 B.n64 70.2023
R1110 B.n783 B.n64 70.2023
R1111 B.n783 B.n782 70.2023
R1112 B.n782 B.n781 70.2023
R1113 B.n775 B.n74 70.2023
R1114 B.n775 B.n774 70.2023
R1115 B.n774 B.n773 70.2023