* NGSPICE file created from tg_sample_0010.ext - technology: sky130A

.subckt tg_sample_0010 VIN VGN VGP VSS VCC VOUT
X0 VOUT.t33 VOUT.t32 VOUT.t33 VCC.t14 sky130_fd_pr__pfet_01v8 ad=0.49335 pd=3.32 as=0 ps=0 w=2.99 l=3.9
X1 VSS.t18 VSS.t16 VSS.t17 VSS.t13 sky130_fd_pr__nfet_01v8 ad=6.4662 pd=33.94 as=0 ps=0 w=16.58 l=1.63
X2 VCC.t13 VCC.t11 VCC.t12 VCC.t8 sky130_fd_pr__pfet_01v8 ad=1.1661 pd=6.76 as=0 ps=0 w=2.99 l=3.9
X3 VSS.t15 VSS.t12 VSS.t14 VSS.t13 sky130_fd_pr__nfet_01v8 ad=6.4662 pd=33.94 as=0 ps=0 w=16.58 l=1.63
X4 VOUT.t11 VGN.t0 VOUT.t10 VSS.t4 sky130_fd_pr__nfet_01v8 ad=6.4662 pd=33.94 as=0 ps=0 w=16.58 l=1.63
X5 VCC.t10 VCC.t7 VCC.t9 VCC.t8 sky130_fd_pr__pfet_01v8 ad=1.1661 pd=6.76 as=0 ps=0 w=2.99 l=3.9
X6 VOUT.t2 VGN.t1 VOUT.t2 VSS.t2 sky130_fd_pr__nfet_01v8 ad=2.7357 pd=16.91 as=0 ps=0 w=16.58 l=1.63
X7 VOUT.t31 VOUT.t29 VOUT.t30 VCC.t18 sky130_fd_pr__pfet_01v8 ad=1.1661 pd=6.76 as=0 ps=0 w=2.99 l=3.9
X8 VOUT.t4 VGN.t2 VOUT.t4 VSS.t2 sky130_fd_pr__nfet_01v8 ad=2.7357 pd=16.91 as=0 ps=0 w=16.58 l=1.63
X9 VOUT.t1 VGN.t3 VOUT.t1 VSS.t1 sky130_fd_pr__nfet_01v8 ad=2.7357 pd=16.91 as=0 ps=0 w=16.58 l=1.63
X10 VSS.t11 VSS.t9 VSS.t10 VSS.t6 sky130_fd_pr__nfet_01v8 ad=6.4662 pd=33.94 as=0 ps=0 w=16.58 l=1.63
X11 VOUT.t28 VOUT.t27 VOUT.t28 VCC.t17 sky130_fd_pr__pfet_01v8 ad=0.49335 pd=3.32 as=0 ps=0 w=2.99 l=3.9
X12 VOUT.t3 VGN.t4 VOUT.t3 VSS.t3 sky130_fd_pr__nfet_01v8 ad=2.7357 pd=16.91 as=0 ps=0 w=16.58 l=1.63
X13 VOUT.t26 VOUT.t24 VOUT.t25 VCC.t18 sky130_fd_pr__pfet_01v8 ad=1.1661 pd=6.76 as=0 ps=0 w=2.99 l=3.9
X14 VOUT.t7 VGN.t5 VOUT.t7 VSS.t3 sky130_fd_pr__nfet_01v8 ad=2.7357 pd=16.91 as=0 ps=0 w=16.58 l=1.63
X15 VOUT.t23 VOUT.t22 VOUT.t23 VCC.t16 sky130_fd_pr__pfet_01v8 ad=0.49335 pd=3.32 as=0 ps=0 w=2.99 l=3.9
X16 VOUT.t21 VOUT.t20 VOUT.t21 VCC.t17 sky130_fd_pr__pfet_01v8 ad=0.49335 pd=3.32 as=0 ps=0 w=2.99 l=3.9
X17 VOUT.t19 VOUT.t18 VOUT.t19 VCC.t16 sky130_fd_pr__pfet_01v8 ad=0.49335 pd=3.32 as=0 ps=0 w=2.99 l=3.9
X18 VOUT.t8 VGN.t6 VOUT.t8 VSS.t1 sky130_fd_pr__nfet_01v8 ad=2.7357 pd=16.91 as=0 ps=0 w=16.58 l=1.63
X19 VSS.t8 VSS.t5 VSS.t7 VSS.t6 sky130_fd_pr__nfet_01v8 ad=6.4662 pd=33.94 as=0 ps=0 w=16.58 l=1.63
X20 VOUT.t9 VGN.t7 VOUT.t9 VSS.t0 sky130_fd_pr__nfet_01v8 ad=2.7357 pd=16.91 as=0 ps=0 w=16.58 l=1.63
X21 VOUT.t17 VOUT.t16 VOUT.t17 VCC.t15 sky130_fd_pr__pfet_01v8 ad=0.49335 pd=3.32 as=0 ps=0 w=2.99 l=3.9
X22 VOUT.t0 VGN.t8 VOUT.t0 VSS.t0 sky130_fd_pr__nfet_01v8 ad=2.7357 pd=16.91 as=0 ps=0 w=16.58 l=1.63
X23 VCC.t6 VCC.t4 VCC.t5 VCC.t1 sky130_fd_pr__pfet_01v8 ad=1.1661 pd=6.76 as=0 ps=0 w=2.99 l=3.9
X24 VOUT.t15 VOUT.t14 VOUT.t15 VCC.t15 sky130_fd_pr__pfet_01v8 ad=0.49335 pd=3.32 as=0 ps=0 w=2.99 l=3.9
X25 VOUT.t13 VOUT.t12 VOUT.t13 VCC.t14 sky130_fd_pr__pfet_01v8 ad=0.49335 pd=3.32 as=0 ps=0 w=2.99 l=3.9
X26 VCC.t3 VCC.t0 VCC.t2 VCC.t1 sky130_fd_pr__pfet_01v8 ad=1.1661 pd=6.76 as=0 ps=0 w=2.99 l=3.9
X27 VOUT.t6 VGN.t9 VOUT.t5 VSS.t4 sky130_fd_pr__nfet_01v8 ad=6.4662 pd=33.94 as=0 ps=0 w=16.58 l=1.63
R0 VOUT.n15 VOUT.n12 161.3
R1 VOUT.n17 VOUT.n16 161.3
R2 VOUT.n18 VOUT.n11 161.3
R3 VOUT.n20 VOUT.n19 161.3
R4 VOUT.n21 VOUT.n10 161.3
R5 VOUT.n23 VOUT.n22 161.3
R6 VOUT.n24 VOUT.n9 161.3
R7 VOUT.n26 VOUT.n25 161.3
R8 VOUT.n27 VOUT.n8 161.3
R9 VOUT.n29 VOUT.n28 161.3
R10 VOUT.n30 VOUT.n7 161.3
R11 VOUT.n32 VOUT.n31 161.3
R12 VOUT.n33 VOUT.n6 161.3
R13 VOUT.n35 VOUT.n34 161.3
R14 VOUT.n36 VOUT.n5 161.3
R15 VOUT.n38 VOUT.n37 161.3
R16 VOUT.n39 VOUT.n4 161.3
R17 VOUT.n42 VOUT.n41 161.3
R18 VOUT.n43 VOUT.n3 161.3
R19 VOUT.n45 VOUT.n44 161.3
R20 VOUT.n46 VOUT.n2 161.3
R21 VOUT.n48 VOUT.n47 161.3
R22 VOUT.n49 VOUT.n1 161.3
R23 VOUT.n51 VOUT.n50 161.3
R24 VOUT.n52 VOUT.n0 161.3
R25 VOUT.n114 VOUT.n62 161.3
R26 VOUT.n113 VOUT.n112 161.3
R27 VOUT.n111 VOUT.n63 161.3
R28 VOUT.n110 VOUT.n109 161.3
R29 VOUT.n108 VOUT.n64 161.3
R30 VOUT.n107 VOUT.n106 161.3
R31 VOUT.n105 VOUT.n65 161.3
R32 VOUT.n104 VOUT.n103 161.3
R33 VOUT.n101 VOUT.n66 161.3
R34 VOUT.n100 VOUT.n99 161.3
R35 VOUT.n98 VOUT.n67 161.3
R36 VOUT.n97 VOUT.n96 161.3
R37 VOUT.n95 VOUT.n68 161.3
R38 VOUT.n94 VOUT.n93 161.3
R39 VOUT.n92 VOUT.n69 161.3
R40 VOUT.n91 VOUT.n90 161.3
R41 VOUT.n89 VOUT.n70 161.3
R42 VOUT.n88 VOUT.n87 161.3
R43 VOUT.n86 VOUT.n71 161.3
R44 VOUT.n85 VOUT.n84 161.3
R45 VOUT.n83 VOUT.n72 161.3
R46 VOUT.n82 VOUT.n81 161.3
R47 VOUT.n80 VOUT.n73 161.3
R48 VOUT.n79 VOUT.n78 161.3
R49 VOUT.n77 VOUT.n74 161.3
R50 VOUT.t17 VOUT.n61 157.048
R51 VOUT.n60 VOUT.t15 157.048
R52 VOUT.n125 VOUT.n124 142.53
R53 VOUT.n118 VOUT.n61 142.53
R54 VOUT.n128 VOUT.n127 142.53
R55 VOUT.n60 VOUT.n59 142.53
R56 VOUT.n121 VOUT.t31 136.722
R57 VOUT.n131 VOUT.t26 136.722
R58 VOUT.n130 VOUT.n58 129.499
R59 VOUT.n123 VOUT.n122 125.852
R60 VOUT.n120 VOUT.n119 125.852
R61 VOUT.n130 VOUT.n129 125.852
R62 VOUT.t8 VOUT.n133 66.3487
R63 VOUT.n146 VOUT.t1 66.3487
R64 VOUT.n14 VOUT.n13 63.8768
R65 VOUT.n76 VOUT.n75 63.8768
R66 VOUT.n141 VOUT.n140 63.4648
R67 VOUT.n134 VOUT.n133 63.4648
R68 VOUT.n145 VOUT.n144 63.4648
R69 VOUT.n147 VOUT.n146 63.4648
R70 VOUT.n54 VOUT.n53 59.6721
R71 VOUT.n116 VOUT.n115 59.6721
R72 VOUT.n47 VOUT.n46 55.548
R73 VOUT.n109 VOUT.n108 55.548
R74 VOUT.n34 VOUT.n33 51.663
R75 VOUT.n21 VOUT.n20 51.663
R76 VOUT.n83 VOUT.n82 51.663
R77 VOUT.n96 VOUT.n95 51.663
R78 VOUT.n75 VOUT.t29 50.6168
R79 VOUT.n13 VOUT.t24 50.6164
R80 VOUT.n138 VOUT.n135 48.4757
R81 VOUT.n136 VOUT.t6 47.9802
R82 VOUT.n137 VOUT.t11 47.9802
R83 VOUT.n143 VOUT.n56 46.786
R84 VOUT.n149 VOUT.n148 46.786
R85 VOUT.n139 VOUT.n138 46.786
R86 VOUT.n33 VOUT.n32 29.3238
R87 VOUT.n22 VOUT.n21 29.3238
R88 VOUT.n84 VOUT.n83 29.3238
R89 VOUT.n95 VOUT.n94 29.3238
R90 VOUT.n47 VOUT.n1 25.4388
R91 VOUT.n109 VOUT.n63 25.4388
R92 VOUT.n52 VOUT.n51 24.4675
R93 VOUT.n51 VOUT.n1 24.4675
R94 VOUT.n46 VOUT.n45 24.4675
R95 VOUT.n45 VOUT.n3 24.4675
R96 VOUT.n41 VOUT.n3 24.4675
R97 VOUT.n39 VOUT.n38 24.4675
R98 VOUT.n38 VOUT.n5 24.4675
R99 VOUT.n34 VOUT.n5 24.4675
R100 VOUT.n32 VOUT.n7 24.4675
R101 VOUT.n28 VOUT.n7 24.4675
R102 VOUT.n28 VOUT.n27 24.4675
R103 VOUT.n27 VOUT.n26 24.4675
R104 VOUT.n26 VOUT.n9 24.4675
R105 VOUT.n22 VOUT.n9 24.4675
R106 VOUT.n20 VOUT.n11 24.4675
R107 VOUT.n16 VOUT.n11 24.4675
R108 VOUT.n16 VOUT.n15 24.4675
R109 VOUT.n82 VOUT.n73 24.4675
R110 VOUT.n78 VOUT.n73 24.4675
R111 VOUT.n78 VOUT.n77 24.4675
R112 VOUT.n94 VOUT.n69 24.4675
R113 VOUT.n90 VOUT.n69 24.4675
R114 VOUT.n90 VOUT.n89 24.4675
R115 VOUT.n89 VOUT.n88 24.4675
R116 VOUT.n88 VOUT.n71 24.4675
R117 VOUT.n84 VOUT.n71 24.4675
R118 VOUT.n108 VOUT.n107 24.4675
R119 VOUT.n107 VOUT.n65 24.4675
R120 VOUT.n103 VOUT.n65 24.4675
R121 VOUT.n101 VOUT.n100 24.4675
R122 VOUT.n100 VOUT.n67 24.4675
R123 VOUT.n96 VOUT.n67 24.4675
R124 VOUT.n114 VOUT.n113 24.4675
R125 VOUT.n113 VOUT.n63 24.4675
R126 VOUT.n53 VOUT.n52 22.5101
R127 VOUT.n115 VOUT.n114 22.5101
R128 VIN VOUT.n55 18.841
R129 VOUT.n142 VOUT.n141 18.8065
R130 VOUT.n27 VOUT.t32 18.4772
R131 VOUT.n53 VOUT.t14 18.4772
R132 VOUT.n40 VOUT.t18 18.4772
R133 VOUT.n14 VOUT.t20 18.4772
R134 VOUT.n89 VOUT.t12 18.4772
R135 VOUT.n76 VOUT.t27 18.4772
R136 VOUT.n102 VOUT.t22 18.4772
R137 VOUT.n115 VOUT.t16 18.4772
R138 VOUT.n137 VOUT.n136 17.8281
R139 VOUT.n142 VOUT.n132 15.8865
R140 VOUT.n127 VOUT.n126 14.4315
R141 VOUT.n41 VOUT.n40 13.2127
R142 VOUT.n103 VOUT.n102 13.2127
R143 VOUT.n40 VOUT.n39 11.2553
R144 VOUT.n15 VOUT.n14 11.2553
R145 VOUT.n77 VOUT.n76 11.2553
R146 VOUT.n102 VOUT.n101 11.2553
R147 VOUT.n124 VOUT.t28 10.8717
R148 VOUT.n124 VOUT.t30 10.8717
R149 VOUT.t23 VOUT.n118 10.8717
R150 VOUT.n118 VOUT.t13 10.8717
R151 VOUT.n123 VOUT.t13 10.8717
R152 VOUT.t28 VOUT.n123 10.8717
R153 VOUT.n119 VOUT.t17 10.8717
R154 VOUT.n119 VOUT.t23 10.8717
R155 VOUT.n129 VOUT.t33 10.8717
R156 VOUT.n129 VOUT.t21 10.8717
R157 VOUT.t15 VOUT.n58 10.8717
R158 VOUT.t19 VOUT.n58 10.8717
R159 VOUT.t21 VOUT.n128 10.8717
R160 VOUT.n128 VOUT.t25 10.8717
R161 VOUT.n59 VOUT.t19 10.8717
R162 VOUT.n59 VOUT.t33 10.8717
R163 VOUT.n120 VOUT.n117 6.66429
R164 VOUT.n117 VGP 6.33817
R165 VOUT.n55 VOUT.n54 5.28823
R166 VOUT.n121 VOUT.n57 5.06539
R167 VOUT.n132 VOUT.n131 4.88412
R168 VOUT.n126 VOUT.n57 4.5005
R169 VOUT.n122 VOUT.n120 3.64705
R170 VOUT.n122 VOUT.n121 3.64705
R171 VOUT.n131 VOUT.n130 3.64705
R172 VOUT.n127 VOUT.n60 3.64705
R173 VOUT.n125 VOUT.n61 3.64705
R174 VOUT.n75 VOUT.n74 2.6058
R175 VOUT.n13 VOUT.n12 2.60578
R176 VOUT VOUT.n125 1.94447
R177 VOUT.n145 VOUT.n142 1.74619
R178 VOUT.n138 VOUT.n137 1.69016
R179 VOUT.n149 VOUT.n56 1.69016
R180 VOUT.n136 VOUT.n56 1.69016
R181 VOUT.n141 VOUT.n133 1.69016
R182 VOUT.n146 VOUT.n145 1.69016
R183 VOUT.n132 VOUT.n57 1.48273
R184 VOUT.n143 VOUT.t7 1.19471
R185 VOUT.t9 VOUT.n143 1.19471
R186 VOUT.n148 VOUT.t1 1.19471
R187 VOUT.n148 VOUT.t2 1.19471
R188 VOUT.n139 VOUT.t3 1.19471
R189 VOUT.t0 VOUT.n139 1.19471
R190 VOUT.n135 VOUT.t8 1.19471
R191 VOUT.n135 VOUT.t4 1.19471
R192 VOUT.n140 VOUT.t0 1.19471
R193 VOUT.n140 VOUT.t10 1.19471
R194 VOUT.t4 VOUT.n134 1.19471
R195 VOUT.n134 VOUT.t3 1.19471
R196 VOUT.n144 VOUT.t9 1.19471
R197 VOUT.n144 VOUT.t5 1.19471
R198 VOUT.t2 VOUT.n147 1.19471
R199 VOUT.n147 VOUT.t7 1.19471
R200 VIN VOUT.n149 0.849638
R201 VGP VOUT.n116 0.447322
R202 VOUT.n54 VOUT.n0 0.417535
R203 VOUT.n116 VOUT.n62 0.417535
R204 VOUT.n117 VOUT.n55 0.284154
R205 VOUT.n126 VOUT 0.220328
R206 VOUT.n50 VOUT.n0 0.189894
R207 VOUT.n50 VOUT.n49 0.189894
R208 VOUT.n49 VOUT.n48 0.189894
R209 VOUT.n48 VOUT.n2 0.189894
R210 VOUT.n44 VOUT.n2 0.189894
R211 VOUT.n44 VOUT.n43 0.189894
R212 VOUT.n43 VOUT.n42 0.189894
R213 VOUT.n42 VOUT.n4 0.189894
R214 VOUT.n37 VOUT.n4 0.189894
R215 VOUT.n37 VOUT.n36 0.189894
R216 VOUT.n36 VOUT.n35 0.189894
R217 VOUT.n35 VOUT.n6 0.189894
R218 VOUT.n31 VOUT.n6 0.189894
R219 VOUT.n31 VOUT.n30 0.189894
R220 VOUT.n30 VOUT.n29 0.189894
R221 VOUT.n29 VOUT.n8 0.189894
R222 VOUT.n25 VOUT.n8 0.189894
R223 VOUT.n25 VOUT.n24 0.189894
R224 VOUT.n24 VOUT.n23 0.189894
R225 VOUT.n23 VOUT.n10 0.189894
R226 VOUT.n19 VOUT.n10 0.189894
R227 VOUT.n19 VOUT.n18 0.189894
R228 VOUT.n18 VOUT.n17 0.189894
R229 VOUT.n17 VOUT.n12 0.189894
R230 VOUT.n112 VOUT.n62 0.189894
R231 VOUT.n112 VOUT.n111 0.189894
R232 VOUT.n111 VOUT.n110 0.189894
R233 VOUT.n110 VOUT.n64 0.189894
R234 VOUT.n106 VOUT.n64 0.189894
R235 VOUT.n106 VOUT.n105 0.189894
R236 VOUT.n105 VOUT.n104 0.189894
R237 VOUT.n104 VOUT.n66 0.189894
R238 VOUT.n99 VOUT.n66 0.189894
R239 VOUT.n99 VOUT.n98 0.189894
R240 VOUT.n98 VOUT.n97 0.189894
R241 VOUT.n97 VOUT.n68 0.189894
R242 VOUT.n93 VOUT.n68 0.189894
R243 VOUT.n93 VOUT.n92 0.189894
R244 VOUT.n92 VOUT.n91 0.189894
R245 VOUT.n91 VOUT.n70 0.189894
R246 VOUT.n87 VOUT.n70 0.189894
R247 VOUT.n87 VOUT.n86 0.189894
R248 VOUT.n86 VOUT.n85 0.189894
R249 VOUT.n85 VOUT.n72 0.189894
R250 VOUT.n81 VOUT.n72 0.189894
R251 VOUT.n81 VOUT.n80 0.189894
R252 VOUT.n80 VOUT.n79 0.189894
R253 VOUT.n79 VOUT.n74 0.189894
R254 VCC.n571 VCC.n44 367.317
R255 VCC.n569 VCC.n48 367.317
R256 VCC.n280 VCC.n197 367.317
R257 VCC.n282 VCC.n195 367.317
R258 VCC.n503 VCC.t11 227.897
R259 VCC.n493 VCC.t7 227.897
R260 VCC.n204 VCC.t0 227.897
R261 VCC.n214 VCC.t4 227.897
R262 VCC.n503 VCC.t12 227.101
R263 VCC.n493 VCC.t9 227.101
R264 VCC.n204 VCC.t3 227.101
R265 VCC.n214 VCC.t6 227.101
R266 VCC.n569 VCC.n568 185
R267 VCC.n570 VCC.n569 185
R268 VCC.n49 VCC.n47 185
R269 VCC.n47 VCC.n45 185
R270 VCC.n484 VCC.n483 185
R271 VCC.n483 VCC.n482 185
R272 VCC.n52 VCC.n51 185
R273 VCC.n481 VCC.n52 185
R274 VCC.n479 VCC.n478 185
R275 VCC.n480 VCC.n479 185
R276 VCC.n54 VCC.n53 185
R277 VCC.n471 VCC.n53 185
R278 VCC.n474 VCC.n473 185
R279 VCC.n473 VCC.n472 185
R280 VCC.n57 VCC.n56 185
R281 VCC.n469 VCC.n57 185
R282 VCC.n467 VCC.n466 185
R283 VCC.n468 VCC.n467 185
R284 VCC.n61 VCC.n60 185
R285 VCC.n60 VCC.n59 185
R286 VCC.n462 VCC.n461 185
R287 VCC.n461 VCC.n460 185
R288 VCC.n64 VCC.n63 185
R289 VCC.n459 VCC.n64 185
R290 VCC.n457 VCC.n456 185
R291 VCC.n458 VCC.n457 185
R292 VCC.n68 VCC.n67 185
R293 VCC.n67 VCC.n66 185
R294 VCC.n452 VCC.n451 185
R295 VCC.n451 VCC.n450 185
R296 VCC.n71 VCC.n70 185
R297 VCC.n449 VCC.n71 185
R298 VCC.n447 VCC.n446 185
R299 VCC.n448 VCC.n447 185
R300 VCC.n75 VCC.n74 185
R301 VCC.n74 VCC.n73 185
R302 VCC.n442 VCC.n441 185
R303 VCC.n441 VCC.n440 185
R304 VCC.n78 VCC.n77 185
R305 VCC.n439 VCC.n78 185
R306 VCC.n437 VCC.n436 185
R307 VCC.n438 VCC.n437 185
R308 VCC.n82 VCC.n81 185
R309 VCC.n81 VCC.n80 185
R310 VCC.n432 VCC.n431 185
R311 VCC.n431 VCC.n430 185
R312 VCC.n85 VCC.n84 185
R313 VCC.n429 VCC.n85 185
R314 VCC.n427 VCC.n426 185
R315 VCC.n428 VCC.n427 185
R316 VCC.n89 VCC.n88 185
R317 VCC.n88 VCC.n87 185
R318 VCC.n422 VCC.n421 185
R319 VCC.n421 VCC.n420 185
R320 VCC.n92 VCC.n91 185
R321 VCC.n419 VCC.n92 185
R322 VCC.n417 VCC.n416 185
R323 VCC.n418 VCC.n417 185
R324 VCC.n96 VCC.n95 185
R325 VCC.n95 VCC.n94 185
R326 VCC.n412 VCC.n411 185
R327 VCC.n411 VCC.n410 185
R328 VCC.n99 VCC.n98 185
R329 VCC.n409 VCC.n99 185
R330 VCC.n408 VCC.n407 185
R331 VCC.t14 VCC.n408 185
R332 VCC.n102 VCC.n101 185
R333 VCC.n101 VCC.n100 185
R334 VCC.n403 VCC.n402 185
R335 VCC.n402 VCC.n401 185
R336 VCC.n105 VCC.n104 185
R337 VCC.n106 VCC.n105 185
R338 VCC.n392 VCC.n391 185
R339 VCC.n393 VCC.n392 185
R340 VCC.n115 VCC.n114 185
R341 VCC.n114 VCC.n113 185
R342 VCC.n387 VCC.n386 185
R343 VCC.n386 VCC.n385 185
R344 VCC.n118 VCC.n117 185
R345 VCC.n119 VCC.n118 185
R346 VCC.n376 VCC.n375 185
R347 VCC.n377 VCC.n376 185
R348 VCC.n126 VCC.n125 185
R349 VCC.n131 VCC.n125 185
R350 VCC.n371 VCC.n370 185
R351 VCC.n370 VCC.n369 185
R352 VCC.n129 VCC.n128 185
R353 VCC.n130 VCC.n129 185
R354 VCC.n360 VCC.n359 185
R355 VCC.n361 VCC.n360 185
R356 VCC.n139 VCC.n138 185
R357 VCC.n138 VCC.n137 185
R358 VCC.n355 VCC.n354 185
R359 VCC.n354 VCC.n353 185
R360 VCC.n142 VCC.n141 185
R361 VCC.n143 VCC.n142 185
R362 VCC.n344 VCC.n343 185
R363 VCC.n345 VCC.n344 185
R364 VCC.n150 VCC.n149 185
R365 VCC.n155 VCC.n149 185
R366 VCC.n339 VCC.n338 185
R367 VCC.n338 VCC.n337 185
R368 VCC.n153 VCC.n152 185
R369 VCC.n154 VCC.n153 185
R370 VCC.n328 VCC.n327 185
R371 VCC.n329 VCC.n328 185
R372 VCC.n163 VCC.n162 185
R373 VCC.n162 VCC.n161 185
R374 VCC.n323 VCC.n322 185
R375 VCC.n322 VCC.n321 185
R376 VCC.n166 VCC.n165 185
R377 VCC.n167 VCC.n166 185
R378 VCC.n312 VCC.n311 185
R379 VCC.n313 VCC.n312 185
R380 VCC.n175 VCC.n174 185
R381 VCC.n174 VCC.n173 185
R382 VCC.n307 VCC.n306 185
R383 VCC.n306 VCC.n305 185
R384 VCC.n178 VCC.n177 185
R385 VCC.n179 VCC.n178 185
R386 VCC.n296 VCC.n295 185
R387 VCC.n297 VCC.n296 185
R388 VCC.n187 VCC.n186 185
R389 VCC.n186 VCC.n185 185
R390 VCC.n291 VCC.n290 185
R391 VCC.n290 VCC.n289 185
R392 VCC.n190 VCC.n189 185
R393 VCC.n191 VCC.n190 185
R394 VCC.n280 VCC.n279 185
R395 VCC.n281 VCC.n280 185
R396 VCC.n283 VCC.n282 185
R397 VCC.n282 VCC.n281 185
R398 VCC.n193 VCC.n192 185
R399 VCC.n192 VCC.n191 185
R400 VCC.n288 VCC.n287 185
R401 VCC.n289 VCC.n288 185
R402 VCC.n184 VCC.n183 185
R403 VCC.n185 VCC.n184 185
R404 VCC.n299 VCC.n298 185
R405 VCC.n298 VCC.n297 185
R406 VCC.n181 VCC.n180 185
R407 VCC.n180 VCC.n179 185
R408 VCC.n304 VCC.n303 185
R409 VCC.n305 VCC.n304 185
R410 VCC.n172 VCC.n171 185
R411 VCC.n173 VCC.n172 185
R412 VCC.n315 VCC.n314 185
R413 VCC.n314 VCC.n313 185
R414 VCC.n169 VCC.n168 185
R415 VCC.n168 VCC.n167 185
R416 VCC.n320 VCC.n319 185
R417 VCC.n321 VCC.n320 185
R418 VCC.n160 VCC.n159 185
R419 VCC.n161 VCC.n160 185
R420 VCC.n331 VCC.n330 185
R421 VCC.n330 VCC.n329 185
R422 VCC.n157 VCC.n156 185
R423 VCC.n156 VCC.n154 185
R424 VCC.n336 VCC.n335 185
R425 VCC.n337 VCC.n336 185
R426 VCC.n148 VCC.n147 185
R427 VCC.n155 VCC.n148 185
R428 VCC.n347 VCC.n346 185
R429 VCC.n346 VCC.n345 185
R430 VCC.n145 VCC.n144 185
R431 VCC.n144 VCC.n143 185
R432 VCC.n352 VCC.n351 185
R433 VCC.n353 VCC.n352 185
R434 VCC.n136 VCC.n135 185
R435 VCC.n137 VCC.n136 185
R436 VCC.n363 VCC.n362 185
R437 VCC.n362 VCC.n361 185
R438 VCC.n133 VCC.n132 185
R439 VCC.n132 VCC.n130 185
R440 VCC.n368 VCC.n367 185
R441 VCC.n369 VCC.n368 185
R442 VCC.n124 VCC.n123 185
R443 VCC.n131 VCC.n124 185
R444 VCC.n379 VCC.n378 185
R445 VCC.n378 VCC.n377 185
R446 VCC.n121 VCC.n120 185
R447 VCC.n120 VCC.n119 185
R448 VCC.n384 VCC.n383 185
R449 VCC.n385 VCC.n384 185
R450 VCC.n112 VCC.n111 185
R451 VCC.n113 VCC.n112 185
R452 VCC.n395 VCC.n394 185
R453 VCC.n394 VCC.n393 185
R454 VCC.n109 VCC.n107 185
R455 VCC.n107 VCC.n106 185
R456 VCC.n400 VCC.n399 185
R457 VCC.n401 VCC.n400 185
R458 VCC.n108 VCC.n2 185
R459 VCC.n108 VCC.n100 185
R460 VCC.n620 VCC.n3 185
R461 VCC.t14 VCC.n3 185
R462 VCC.n619 VCC.n4 185
R463 VCC.n409 VCC.n4 185
R464 VCC.n618 VCC.n5 185
R465 VCC.n410 VCC.n5 185
R466 VCC.n93 VCC.n6 185
R467 VCC.n94 VCC.n93 185
R468 VCC.n614 VCC.n8 185
R469 VCC.n418 VCC.n8 185
R470 VCC.n613 VCC.n9 185
R471 VCC.n419 VCC.n9 185
R472 VCC.n612 VCC.n10 185
R473 VCC.n420 VCC.n10 185
R474 VCC.n86 VCC.n11 185
R475 VCC.n87 VCC.n86 185
R476 VCC.n608 VCC.n13 185
R477 VCC.n428 VCC.n13 185
R478 VCC.n607 VCC.n14 185
R479 VCC.n429 VCC.n14 185
R480 VCC.n606 VCC.n15 185
R481 VCC.n430 VCC.n15 185
R482 VCC.n79 VCC.n16 185
R483 VCC.n80 VCC.n79 185
R484 VCC.n602 VCC.n18 185
R485 VCC.n438 VCC.n18 185
R486 VCC.n601 VCC.n19 185
R487 VCC.n439 VCC.n19 185
R488 VCC.n600 VCC.n20 185
R489 VCC.n440 VCC.n20 185
R490 VCC.n72 VCC.n21 185
R491 VCC.n73 VCC.n72 185
R492 VCC.n596 VCC.n23 185
R493 VCC.n448 VCC.n23 185
R494 VCC.n595 VCC.n24 185
R495 VCC.n449 VCC.n24 185
R496 VCC.n594 VCC.n25 185
R497 VCC.n450 VCC.n25 185
R498 VCC.n65 VCC.n26 185
R499 VCC.n66 VCC.n65 185
R500 VCC.n590 VCC.n28 185
R501 VCC.n458 VCC.n28 185
R502 VCC.n589 VCC.n29 185
R503 VCC.n459 VCC.n29 185
R504 VCC.n588 VCC.n30 185
R505 VCC.n460 VCC.n30 185
R506 VCC.n58 VCC.n31 185
R507 VCC.n59 VCC.n58 185
R508 VCC.n584 VCC.n33 185
R509 VCC.n468 VCC.n33 185
R510 VCC.n583 VCC.n34 185
R511 VCC.n469 VCC.n34 185
R512 VCC.n582 VCC.n35 185
R513 VCC.n472 VCC.n35 185
R514 VCC.n470 VCC.n36 185
R515 VCC.n471 VCC.n470 185
R516 VCC.n578 VCC.n38 185
R517 VCC.n480 VCC.n38 185
R518 VCC.n577 VCC.n39 185
R519 VCC.n481 VCC.n39 185
R520 VCC.n576 VCC.n40 185
R521 VCC.n482 VCC.n40 185
R522 VCC.n43 VCC.n41 185
R523 VCC.n45 VCC.n43 185
R524 VCC.n572 VCC.n571 185
R525 VCC.n571 VCC.n570 185
R526 VCC.n566 VCC.n48 185
R527 VCC.n565 VCC.n564 185
R528 VCC.n562 VCC.n487 185
R529 VCC.n560 VCC.n559 185
R530 VCC.n558 VCC.n488 185
R531 VCC.n557 VCC.n556 185
R532 VCC.n554 VCC.n489 185
R533 VCC.n552 VCC.n551 185
R534 VCC.n550 VCC.n490 185
R535 VCC.n549 VCC.n548 185
R536 VCC.n546 VCC.n491 185
R537 VCC.n544 VCC.n543 185
R538 VCC.n542 VCC.n492 185
R539 VCC.n540 VCC.n539 185
R540 VCC.n537 VCC.n495 185
R541 VCC.n535 VCC.n534 185
R542 VCC.n533 VCC.n496 185
R543 VCC.n532 VCC.n531 185
R544 VCC.n529 VCC.n497 185
R545 VCC.n527 VCC.n526 185
R546 VCC.n525 VCC.n498 185
R547 VCC.n524 VCC.n523 185
R548 VCC.n521 VCC.n499 185
R549 VCC.n519 VCC.n518 185
R550 VCC.n517 VCC.n500 185
R551 VCC.n516 VCC.n515 185
R552 VCC.n513 VCC.n501 185
R553 VCC.n511 VCC.n510 185
R554 VCC.n509 VCC.n502 185
R555 VCC.n507 VCC.n506 185
R556 VCC.n44 VCC.n42 185
R557 VCC.n46 VCC.n44 185
R558 VCC.n195 VCC.n194 185
R559 VCC.n218 VCC.n217 185
R560 VCC.n220 VCC.n213 185
R561 VCC.n213 VCC.n196 185
R562 VCC.n222 VCC.n221 185
R563 VCC.n224 VCC.n212 185
R564 VCC.n227 VCC.n226 185
R565 VCC.n228 VCC.n211 185
R566 VCC.n230 VCC.n229 185
R567 VCC.n232 VCC.n210 185
R568 VCC.n235 VCC.n234 185
R569 VCC.n236 VCC.n209 185
R570 VCC.n238 VCC.n237 185
R571 VCC.n240 VCC.n208 185
R572 VCC.n243 VCC.n242 185
R573 VCC.n244 VCC.n207 185
R574 VCC.n246 VCC.n245 185
R575 VCC.n248 VCC.n206 185
R576 VCC.n251 VCC.n250 185
R577 VCC.n253 VCC.n203 185
R578 VCC.n255 VCC.n254 185
R579 VCC.n257 VCC.n202 185
R580 VCC.n260 VCC.n259 185
R581 VCC.n261 VCC.n201 185
R582 VCC.n263 VCC.n262 185
R583 VCC.n265 VCC.n200 185
R584 VCC.n268 VCC.n267 185
R585 VCC.n269 VCC.n199 185
R586 VCC.n271 VCC.n270 185
R587 VCC.n273 VCC.n198 185
R588 VCC.n276 VCC.n275 185
R589 VCC.n277 VCC.n197 185
R590 VCC.n280 VCC.n190 146.341
R591 VCC.n290 VCC.n190 146.341
R592 VCC.n290 VCC.n186 146.341
R593 VCC.n296 VCC.n186 146.341
R594 VCC.n296 VCC.n178 146.341
R595 VCC.n306 VCC.n178 146.341
R596 VCC.n306 VCC.n174 146.341
R597 VCC.n312 VCC.n174 146.341
R598 VCC.n312 VCC.n166 146.341
R599 VCC.n322 VCC.n166 146.341
R600 VCC.n322 VCC.n162 146.341
R601 VCC.n328 VCC.n162 146.341
R602 VCC.n328 VCC.n153 146.341
R603 VCC.n338 VCC.n153 146.341
R604 VCC.n338 VCC.n149 146.341
R605 VCC.n344 VCC.n149 146.341
R606 VCC.n344 VCC.n142 146.341
R607 VCC.n354 VCC.n142 146.341
R608 VCC.n354 VCC.n138 146.341
R609 VCC.n360 VCC.n138 146.341
R610 VCC.n360 VCC.n129 146.341
R611 VCC.n370 VCC.n129 146.341
R612 VCC.n370 VCC.n125 146.341
R613 VCC.n376 VCC.n125 146.341
R614 VCC.n376 VCC.n118 146.341
R615 VCC.n386 VCC.n118 146.341
R616 VCC.n386 VCC.n114 146.341
R617 VCC.n392 VCC.n114 146.341
R618 VCC.n392 VCC.n105 146.341
R619 VCC.n402 VCC.n105 146.341
R620 VCC.n402 VCC.n101 146.341
R621 VCC.n408 VCC.n101 146.341
R622 VCC.n408 VCC.n99 146.341
R623 VCC.n411 VCC.n99 146.341
R624 VCC.n411 VCC.n95 146.341
R625 VCC.n417 VCC.n95 146.341
R626 VCC.n417 VCC.n92 146.341
R627 VCC.n421 VCC.n92 146.341
R628 VCC.n421 VCC.n88 146.341
R629 VCC.n427 VCC.n88 146.341
R630 VCC.n427 VCC.n85 146.341
R631 VCC.n431 VCC.n85 146.341
R632 VCC.n431 VCC.n81 146.341
R633 VCC.n437 VCC.n81 146.341
R634 VCC.n437 VCC.n78 146.341
R635 VCC.n441 VCC.n78 146.341
R636 VCC.n441 VCC.n74 146.341
R637 VCC.n447 VCC.n74 146.341
R638 VCC.n447 VCC.n71 146.341
R639 VCC.n451 VCC.n71 146.341
R640 VCC.n451 VCC.n67 146.341
R641 VCC.n457 VCC.n67 146.341
R642 VCC.n457 VCC.n64 146.341
R643 VCC.n461 VCC.n64 146.341
R644 VCC.n461 VCC.n60 146.341
R645 VCC.n467 VCC.n60 146.341
R646 VCC.n467 VCC.n57 146.341
R647 VCC.n473 VCC.n57 146.341
R648 VCC.n473 VCC.n53 146.341
R649 VCC.n479 VCC.n53 146.341
R650 VCC.n479 VCC.n52 146.341
R651 VCC.n483 VCC.n52 146.341
R652 VCC.n483 VCC.n47 146.341
R653 VCC.n569 VCC.n47 146.341
R654 VCC.n282 VCC.n192 146.341
R655 VCC.n288 VCC.n192 146.341
R656 VCC.n288 VCC.n184 146.341
R657 VCC.n298 VCC.n184 146.341
R658 VCC.n298 VCC.n180 146.341
R659 VCC.n304 VCC.n180 146.341
R660 VCC.n304 VCC.n172 146.341
R661 VCC.n314 VCC.n172 146.341
R662 VCC.n314 VCC.n168 146.341
R663 VCC.n320 VCC.n168 146.341
R664 VCC.n320 VCC.n160 146.341
R665 VCC.n330 VCC.n160 146.341
R666 VCC.n330 VCC.n156 146.341
R667 VCC.n336 VCC.n156 146.341
R668 VCC.n336 VCC.n148 146.341
R669 VCC.n346 VCC.n148 146.341
R670 VCC.n346 VCC.n144 146.341
R671 VCC.n352 VCC.n144 146.341
R672 VCC.n352 VCC.n136 146.341
R673 VCC.n362 VCC.n136 146.341
R674 VCC.n362 VCC.n132 146.341
R675 VCC.n368 VCC.n132 146.341
R676 VCC.n368 VCC.n124 146.341
R677 VCC.n378 VCC.n124 146.341
R678 VCC.n378 VCC.n120 146.341
R679 VCC.n384 VCC.n120 146.341
R680 VCC.n384 VCC.n112 146.341
R681 VCC.n394 VCC.n112 146.341
R682 VCC.n394 VCC.n107 146.341
R683 VCC.n400 VCC.n107 146.341
R684 VCC.n400 VCC.n108 146.341
R685 VCC.n108 VCC.n3 146.341
R686 VCC.n4 VCC.n3 146.341
R687 VCC.n5 VCC.n4 146.341
R688 VCC.n93 VCC.n5 146.341
R689 VCC.n93 VCC.n8 146.341
R690 VCC.n9 VCC.n8 146.341
R691 VCC.n10 VCC.n9 146.341
R692 VCC.n86 VCC.n10 146.341
R693 VCC.n86 VCC.n13 146.341
R694 VCC.n14 VCC.n13 146.341
R695 VCC.n15 VCC.n14 146.341
R696 VCC.n79 VCC.n15 146.341
R697 VCC.n79 VCC.n18 146.341
R698 VCC.n19 VCC.n18 146.341
R699 VCC.n20 VCC.n19 146.341
R700 VCC.n72 VCC.n20 146.341
R701 VCC.n72 VCC.n23 146.341
R702 VCC.n24 VCC.n23 146.341
R703 VCC.n25 VCC.n24 146.341
R704 VCC.n65 VCC.n25 146.341
R705 VCC.n65 VCC.n28 146.341
R706 VCC.n29 VCC.n28 146.341
R707 VCC.n30 VCC.n29 146.341
R708 VCC.n58 VCC.n30 146.341
R709 VCC.n58 VCC.n33 146.341
R710 VCC.n34 VCC.n33 146.341
R711 VCC.n35 VCC.n34 146.341
R712 VCC.n470 VCC.n35 146.341
R713 VCC.n470 VCC.n38 146.341
R714 VCC.n39 VCC.n38 146.341
R715 VCC.n40 VCC.n39 146.341
R716 VCC.n43 VCC.n40 146.341
R717 VCC.n571 VCC.n43 146.341
R718 VCC.n504 VCC.t13 145.065
R719 VCC.n494 VCC.t10 145.065
R720 VCC.n205 VCC.t2 145.065
R721 VCC.n215 VCC.t5 145.065
R722 VCC.n506 VCC.n44 99.5127
R723 VCC.n511 VCC.n502 99.5127
R724 VCC.n515 VCC.n513 99.5127
R725 VCC.n519 VCC.n500 99.5127
R726 VCC.n523 VCC.n521 99.5127
R727 VCC.n527 VCC.n498 99.5127
R728 VCC.n531 VCC.n529 99.5127
R729 VCC.n535 VCC.n496 99.5127
R730 VCC.n539 VCC.n537 99.5127
R731 VCC.n544 VCC.n492 99.5127
R732 VCC.n548 VCC.n546 99.5127
R733 VCC.n552 VCC.n490 99.5127
R734 VCC.n556 VCC.n554 99.5127
R735 VCC.n560 VCC.n488 99.5127
R736 VCC.n564 VCC.n562 99.5127
R737 VCC.n217 VCC.n213 99.5127
R738 VCC.n222 VCC.n213 99.5127
R739 VCC.n226 VCC.n224 99.5127
R740 VCC.n230 VCC.n211 99.5127
R741 VCC.n234 VCC.n232 99.5127
R742 VCC.n238 VCC.n209 99.5127
R743 VCC.n242 VCC.n240 99.5127
R744 VCC.n246 VCC.n207 99.5127
R745 VCC.n250 VCC.n248 99.5127
R746 VCC.n255 VCC.n203 99.5127
R747 VCC.n259 VCC.n257 99.5127
R748 VCC.n263 VCC.n201 99.5127
R749 VCC.n267 VCC.n265 99.5127
R750 VCC.n271 VCC.n199 99.5127
R751 VCC.n275 VCC.n273 99.5127
R752 VCC.n504 VCC.n503 82.0369
R753 VCC.n494 VCC.n493 82.0369
R754 VCC.n205 VCC.n204 82.0369
R755 VCC.n215 VCC.n214 82.0369
R756 VCC.n563 VCC.n46 72.8958
R757 VCC.n561 VCC.n46 72.8958
R758 VCC.n555 VCC.n46 72.8958
R759 VCC.n553 VCC.n46 72.8958
R760 VCC.n547 VCC.n46 72.8958
R761 VCC.n545 VCC.n46 72.8958
R762 VCC.n538 VCC.n46 72.8958
R763 VCC.n536 VCC.n46 72.8958
R764 VCC.n530 VCC.n46 72.8958
R765 VCC.n528 VCC.n46 72.8958
R766 VCC.n522 VCC.n46 72.8958
R767 VCC.n520 VCC.n46 72.8958
R768 VCC.n514 VCC.n46 72.8958
R769 VCC.n512 VCC.n46 72.8958
R770 VCC.n505 VCC.n46 72.8958
R771 VCC.n216 VCC.n196 72.8958
R772 VCC.n223 VCC.n196 72.8958
R773 VCC.n225 VCC.n196 72.8958
R774 VCC.n231 VCC.n196 72.8958
R775 VCC.n233 VCC.n196 72.8958
R776 VCC.n239 VCC.n196 72.8958
R777 VCC.n241 VCC.n196 72.8958
R778 VCC.n247 VCC.n196 72.8958
R779 VCC.n249 VCC.n196 72.8958
R780 VCC.n256 VCC.n196 72.8958
R781 VCC.n258 VCC.n196 72.8958
R782 VCC.n264 VCC.n196 72.8958
R783 VCC.n266 VCC.n196 72.8958
R784 VCC.n272 VCC.n196 72.8958
R785 VCC.n274 VCC.n196 72.8958
R786 VCC.n281 VCC.n196 65.2939
R787 VCC.n570 VCC.n46 65.2939
R788 VCC.n505 VCC.n502 39.2114
R789 VCC.n513 VCC.n512 39.2114
R790 VCC.n514 VCC.n500 39.2114
R791 VCC.n521 VCC.n520 39.2114
R792 VCC.n522 VCC.n498 39.2114
R793 VCC.n529 VCC.n528 39.2114
R794 VCC.n530 VCC.n496 39.2114
R795 VCC.n537 VCC.n536 39.2114
R796 VCC.n538 VCC.n492 39.2114
R797 VCC.n546 VCC.n545 39.2114
R798 VCC.n547 VCC.n490 39.2114
R799 VCC.n554 VCC.n553 39.2114
R800 VCC.n555 VCC.n488 39.2114
R801 VCC.n562 VCC.n561 39.2114
R802 VCC.n563 VCC.n48 39.2114
R803 VCC.n216 VCC.n195 39.2114
R804 VCC.n223 VCC.n222 39.2114
R805 VCC.n226 VCC.n225 39.2114
R806 VCC.n231 VCC.n230 39.2114
R807 VCC.n234 VCC.n233 39.2114
R808 VCC.n239 VCC.n238 39.2114
R809 VCC.n242 VCC.n241 39.2114
R810 VCC.n247 VCC.n246 39.2114
R811 VCC.n250 VCC.n249 39.2114
R812 VCC.n256 VCC.n255 39.2114
R813 VCC.n259 VCC.n258 39.2114
R814 VCC.n264 VCC.n263 39.2114
R815 VCC.n267 VCC.n266 39.2114
R816 VCC.n272 VCC.n271 39.2114
R817 VCC.n275 VCC.n274 39.2114
R818 VCC.n564 VCC.n563 39.2114
R819 VCC.n561 VCC.n560 39.2114
R820 VCC.n556 VCC.n555 39.2114
R821 VCC.n553 VCC.n552 39.2114
R822 VCC.n548 VCC.n547 39.2114
R823 VCC.n545 VCC.n544 39.2114
R824 VCC.n539 VCC.n538 39.2114
R825 VCC.n536 VCC.n535 39.2114
R826 VCC.n531 VCC.n530 39.2114
R827 VCC.n528 VCC.n527 39.2114
R828 VCC.n523 VCC.n522 39.2114
R829 VCC.n520 VCC.n519 39.2114
R830 VCC.n515 VCC.n514 39.2114
R831 VCC.n512 VCC.n511 39.2114
R832 VCC.n506 VCC.n505 39.2114
R833 VCC.n217 VCC.n216 39.2114
R834 VCC.n224 VCC.n223 39.2114
R835 VCC.n225 VCC.n211 39.2114
R836 VCC.n232 VCC.n231 39.2114
R837 VCC.n233 VCC.n209 39.2114
R838 VCC.n240 VCC.n239 39.2114
R839 VCC.n241 VCC.n207 39.2114
R840 VCC.n248 VCC.n247 39.2114
R841 VCC.n249 VCC.n203 39.2114
R842 VCC.n257 VCC.n256 39.2114
R843 VCC.n258 VCC.n201 39.2114
R844 VCC.n265 VCC.n264 39.2114
R845 VCC.n266 VCC.n199 39.2114
R846 VCC.n273 VCC.n272 39.2114
R847 VCC.n274 VCC.n197 39.2114
R848 VCC.n281 VCC.n191 38.1838
R849 VCC.n289 VCC.n191 38.1838
R850 VCC.n289 VCC.n185 38.1838
R851 VCC.n297 VCC.n185 38.1838
R852 VCC.n305 VCC.n179 38.1838
R853 VCC.n305 VCC.n173 38.1838
R854 VCC.n313 VCC.n173 38.1838
R855 VCC.n313 VCC.n167 38.1838
R856 VCC.n321 VCC.n167 38.1838
R857 VCC.n321 VCC.n161 38.1838
R858 VCC.n329 VCC.n161 38.1838
R859 VCC.n329 VCC.n154 38.1838
R860 VCC.n337 VCC.n154 38.1838
R861 VCC.n337 VCC.n155 38.1838
R862 VCC.n345 VCC.n143 38.1838
R863 VCC.n353 VCC.n143 38.1838
R864 VCC.n353 VCC.n137 38.1838
R865 VCC.n361 VCC.n137 38.1838
R866 VCC.n361 VCC.n130 38.1838
R867 VCC.n369 VCC.n130 38.1838
R868 VCC.n369 VCC.n131 38.1838
R869 VCC.n377 VCC.n119 38.1838
R870 VCC.n385 VCC.n119 38.1838
R871 VCC.n385 VCC.n113 38.1838
R872 VCC.n393 VCC.n113 38.1838
R873 VCC.n393 VCC.n106 38.1838
R874 VCC.n401 VCC.n106 38.1838
R875 VCC.n401 VCC.n100 38.1838
R876 VCC.t14 VCC.n100 38.1838
R877 VCC.n409 VCC.t14 38.1838
R878 VCC.n410 VCC.n409 38.1838
R879 VCC.n410 VCC.n94 38.1838
R880 VCC.n418 VCC.n94 38.1838
R881 VCC.n419 VCC.n418 38.1838
R882 VCC.n420 VCC.n419 38.1838
R883 VCC.n420 VCC.n87 38.1838
R884 VCC.n428 VCC.n87 38.1838
R885 VCC.n430 VCC.n429 38.1838
R886 VCC.n430 VCC.n80 38.1838
R887 VCC.n438 VCC.n80 38.1838
R888 VCC.n439 VCC.n438 38.1838
R889 VCC.n440 VCC.n439 38.1838
R890 VCC.n440 VCC.n73 38.1838
R891 VCC.n448 VCC.n73 38.1838
R892 VCC.n450 VCC.n449 38.1838
R893 VCC.n450 VCC.n66 38.1838
R894 VCC.n458 VCC.n66 38.1838
R895 VCC.n459 VCC.n458 38.1838
R896 VCC.n460 VCC.n459 38.1838
R897 VCC.n460 VCC.n59 38.1838
R898 VCC.n468 VCC.n59 38.1838
R899 VCC.n469 VCC.n468 38.1838
R900 VCC.n472 VCC.n469 38.1838
R901 VCC.n472 VCC.n471 38.1838
R902 VCC.n481 VCC.n480 38.1838
R903 VCC.n482 VCC.n481 38.1838
R904 VCC.n482 VCC.n45 38.1838
R905 VCC.n570 VCC.n45 38.1838
R906 VCC.n345 VCC.t15 35.1291
R907 VCC.t18 VCC.n448 35.1291
R908 VCC.n508 VCC.n504 29.2853
R909 VCC.n541 VCC.n494 29.2853
R910 VCC.n252 VCC.n205 29.2853
R911 VCC.n219 VCC.n215 29.2853
R912 VCC.n573 VCC.n42 28.449
R913 VCC.n567 VCC.n566 28.449
R914 VCC.n284 VCC.n194 28.449
R915 VCC.n278 VCC.n277 28.449
R916 VCC.t1 VCC.n179 21.3831
R917 VCC.n471 VCC.t8 21.3831
R918 VCC.n131 VCC.t16 20.6195
R919 VCC.n429 VCC.t17 20.6195
R920 VCC.n279 VCC.n189 19.3944
R921 VCC.n291 VCC.n189 19.3944
R922 VCC.n291 VCC.n187 19.3944
R923 VCC.n295 VCC.n187 19.3944
R924 VCC.n295 VCC.n177 19.3944
R925 VCC.n307 VCC.n177 19.3944
R926 VCC.n307 VCC.n175 19.3944