* NGSPICE file created from tg_sample_0006.ext - technology: sky130A

.subckt tg_sample_0006 VIN VGN VGP VSS VCC VOUT
X0 VIN.t6 VGN.t0 VOUT.t5 VSS.t11 sky130_fd_pr__nfet_01v8 ad=1.3455 pd=7.68 as=0.56925 ps=3.78 w=3.45 l=0.62
X1 VIN.t1 VGP.t0 VOUT.t1 VCC.t11 sky130_fd_pr__pfet_01v8 ad=7.332 pd=38.38 as=3.102 ps=19.13 w=18.8 l=2.6
X2 VOUT.t7 VGP.t1 VIN.t7 VCC.t10 sky130_fd_pr__pfet_01v8 ad=3.102 pd=19.13 as=3.102 ps=19.13 w=18.8 l=2.6
X3 VSS.t7 VSS.t4 VSS.t6 VSS.t5 sky130_fd_pr__nfet_01v8 ad=1.3455 pd=7.68 as=0 ps=0 w=3.45 l=0.62
X4 VOUT.t6 VGN.t1 VIN.t5 VSS.t10 sky130_fd_pr__nfet_01v8 ad=0.56925 pd=3.78 as=1.3455 ps=7.68 w=3.45 l=0.62
X5 VCC.t7 VCC.t4 VCC.t6 VCC.t5 sky130_fd_pr__pfet_01v8 ad=7.332 pd=38.38 as=0 ps=0 w=18.8 l=2.6
X6 VIN.t4 VGN.t2 VOUT.t3 VSS.t9 sky130_fd_pr__nfet_01v8 ad=0.56925 pd=3.78 as=0.56925 ps=3.78 w=3.45 l=0.62
X7 VSS.t3 VSS.t0 VSS.t2 VSS.t1 sky130_fd_pr__nfet_01v8 ad=1.3455 pd=7.68 as=0 ps=0 w=3.45 l=0.62
X8 VOUT.t2 VGP.t2 VIN.t2 VCC.t9 sky130_fd_pr__pfet_01v8 ad=3.102 pd=19.13 as=7.332 ps=38.38 w=18.8 l=2.6
X9 VOUT.t4 VGN.t3 VIN.t3 VSS.t8 sky130_fd_pr__nfet_01v8 ad=0.56925 pd=3.78 as=0.56925 ps=3.78 w=3.45 l=0.62
X10 VCC.t3 VCC.t0 VCC.t2 VCC.t1 sky130_fd_pr__pfet_01v8 ad=7.332 pd=38.38 as=0 ps=0 w=18.8 l=2.6
X11 VIN.t0 VGP.t3 VOUT.t0 VCC.t8 sky130_fd_pr__pfet_01v8 ad=3.102 pd=19.13 as=3.102 ps=19.13 w=18.8 l=2.6
R0 VGN.n1 VGN.t1 224.674
R1 VGN.n2 VGN.t2 197.853
R2 VGN.n3 VGN.t3 197.853
R3 VGN.n4 VGN.t0 197.853
R4 VGN.n5 VGN.n4 161.3
R5 VGN.n3 VGN.n0 80.6037
R6 VGN.n3 VGN.n2 48.2005
R7 VGN.n4 VGN.n3 48.2005
R8 VGN.n1 VGN.n0 45.2318
R9 VGN.n2 VGN.n1 13.3799
R10 VGN.n5 VGN.n0 0.285035
R11 VGN VGN.n5 0.133076
R12 VOUT.n5 VOUT.n3 75.5978
R13 VOUT.n5 VOUT.n4 74.7788
R14 VOUT.n2 VOUT.n0 74.491
R15 VOUT.n2 VOUT.n1 71.965
R16 VOUT VOUT.n5 12.8798
R17 VOUT.n4 VOUT.t3 5.73963
R18 VOUT.n4 VOUT.t6 5.73963
R19 VOUT.n3 VOUT.t5 5.73963
R20 VOUT.n3 VOUT.t4 5.73963
R21 VOUT.n1 VOUT.t0 1.72949
R22 VOUT.n1 VOUT.t2 1.72949
R23 VOUT.n0 VOUT.t1 1.72949
R24 VOUT.n0 VOUT.t7 1.72949
R25 VOUT VOUT.n2 1.38412
R26 VIN.n102 VIN.n101 756.745
R27 VIN.n207 VIN.n206 756.745
R28 VIN.n35 VIN.n34 585
R29 VIN.n37 VIN.n36 585
R30 VIN.n30 VIN.n29 585
R31 VIN.n43 VIN.n42 585
R32 VIN.n45 VIN.n44 585
R33 VIN.n26 VIN.n25 585
R34 VIN.n52 VIN.n51 585
R35 VIN.n53 VIN.n24 585
R36 VIN.n55 VIN.n54 585
R37 VIN.n22 VIN.n21 585
R38 VIN.n61 VIN.n60 585
R39 VIN.n63 VIN.n62 585
R40 VIN.n18 VIN.n17 585
R41 VIN.n69 VIN.n68 585
R42 VIN.n71 VIN.n70 585
R43 VIN.n14 VIN.n13 585
R44 VIN.n77 VIN.n76 585
R45 VIN.n79 VIN.n78 585
R46 VIN.n10 VIN.n9 585
R47 VIN.n85 VIN.n84 585
R48 VIN.n87 VIN.n86 585
R49 VIN.n6 VIN.n5 585
R50 VIN.n93 VIN.n92 585
R51 VIN.n95 VIN.n94 585
R52 VIN.n2 VIN.n1 585
R53 VIN.n101 VIN.n100 585
R54 VIN.n140 VIN.n139 585
R55 VIN.n142 VIN.n141 585
R56 VIN.n135 VIN.n134 585
R57 VIN.n148 VIN.n147 585
R58 VIN.n150 VIN.n149 585
R59 VIN.n131 VIN.n130 585
R60 VIN.n157 VIN.n156 585
R61 VIN.n158 VIN.n129 585
R62 VIN.n160 VIN.n159 585
R63 VIN.n127 VIN.n126 585
R64 VIN.n166 VIN.n165 585
R65 VIN.n168 VIN.n167 585
R66 VIN.n123 VIN.n122 585
R67 VIN.n174 VIN.n173 585
R68 VIN.n176 VIN.n175 585
R69 VIN.n119 VIN.n118 585
R70 VIN.n182 VIN.n181 585
R71 VIN.n184 VIN.n183 585
R72 VIN.n115 VIN.n114 585
R73 VIN.n190 VIN.n189 585
R74 VIN.n192 VIN.n191 585
R75 VIN.n111 VIN.n110 585
R76 VIN.n198 VIN.n197 585
R77 VIN.n200 VIN.n199 585
R78 VIN.n107 VIN.n106 585
R79 VIN.n206 VIN.n205 585
R80 VIN.n138 VIN.t1 329.036
R81 VIN.n33 VIN.t2 329.036
R82 VIN.n36 VIN.n35 171.744
R83 VIN.n36 VIN.n29 171.744
R84 VIN.n43 VIN.n29 171.744
R85 VIN.n44 VIN.n43 171.744
R86 VIN.n44 VIN.n25 171.744
R87 VIN.n52 VIN.n25 171.744
R88 VIN.n53 VIN.n52 171.744
R89 VIN.n54 VIN.n53 171.744
R90 VIN.n54 VIN.n21 171.744
R91 VIN.n61 VIN.n21 171.744
R92 VIN.n62 VIN.n61 171.744
R93 VIN.n62 VIN.n17 171.744
R94 VIN.n69 VIN.n17 171.744
R95 VIN.n70 VIN.n69 171.744
R96 VIN.n70 VIN.n13 171.744
R97 VIN.n77 VIN.n13 171.744
R98 VIN.n78 VIN.n77 171.744
R99 VIN.n78 VIN.n9 171.744
R100 VIN.n85 VIN.n9 171.744
R101 VIN.n86 VIN.n85 171.744
R102 VIN.n86 VIN.n5 171.744
R103 VIN.n93 VIN.n5 171.744
R104 VIN.n94 VIN.n93 171.744
R105 VIN.n94 VIN.n1 171.744
R106 VIN.n101 VIN.n1 171.744
R107 VIN.n141 VIN.n140 171.744
R108 VIN.n141 VIN.n134 171.744
R109 VIN.n148 VIN.n134 171.744
R110 VIN.n149 VIN.n148 171.744
R111 VIN.n149 VIN.n130 171.744
R112 VIN.n157 VIN.n130 171.744
R113 VIN.n158 VIN.n157 171.744
R114 VIN.n159 VIN.n158 171.744
R115 VIN.n159 VIN.n126 171.744
R116 VIN.n166 VIN.n126 171.744
R117 VIN.n167 VIN.n166 171.744
R118 VIN.n167 VIN.n122 171.744
R119 VIN.n174 VIN.n122 171.744
R120 VIN.n175 VIN.n174 171.744
R121 VIN.n175 VIN.n118 171.744
R122 VIN.n182 VIN.n118 171.744
R123 VIN.n183 VIN.n182 171.744
R124 VIN.n183 VIN.n114 171.744
R125 VIN.n190 VIN.n114 171.744
R126 VIN.n191 VIN.n190 171.744
R127 VIN.n191 VIN.n110 171.744
R128 VIN.n198 VIN.n110 171.744
R129 VIN.n199 VIN.n198 171.744
R130 VIN.n199 VIN.n106 171.744
R131 VIN.n206 VIN.n106 171.744
R132 VIN.n35 VIN.t2 85.8723
R133 VIN.n140 VIN.t1 85.8723
R134 VIN.n210 VIN.t5 64.658
R135 VIN.n211 VIN.t6 63.8391
R136 VIN.n210 VIN.n209 58.1
R137 VIN.n104 VIN.n103 55.2864
R138 VIN.n104 VIN.n102 38.2021
R139 VIN.n208 VIN.n207 35.6763
R140 VIN.n55 VIN.n22 13.1884
R141 VIN.n160 VIN.n127 13.1884
R142 VIN VIN.n208 13.0781
R143 VIN.n56 VIN.n24 12.8005
R144 VIN.n60 VIN.n59 12.8005
R145 VIN.n100 VIN.n0 12.8005
R146 VIN.n161 VIN.n129 12.8005
R147 VIN.n165 VIN.n164 12.8005
R148 VIN.n205 VIN.n105 12.8005
R149 VIN.n51 VIN.n50 12.0247
R150 VIN.n63 VIN.n20 12.0247
R151 VIN.n99 VIN.n2 12.0247
R152 VIN.n156 VIN.n155 12.0247
R153 VIN.n168 VIN.n125 12.0247
R154 VIN.n204 VIN.n107 12.0247
R155 VIN.n49 VIN.n26 11.249
R156 VIN.n64 VIN.n18 11.249
R157 VIN.n96 VIN.n95 11.249
R158 VIN.n154 VIN.n131 11.249
R159 VIN.n169 VIN.n123 11.249
R160 VIN.n201 VIN.n200 11.249
R161 VIN.n34 VIN.n33 10.7239
R162 VIN.n139 VIN.n138 10.7239
R163 VIN.n46 VIN.n45 10.4732
R164 VIN.n68 VIN.n67 10.4732
R165 VIN.n92 VIN.n4 10.4732
R166 VIN.n151 VIN.n150 10.4732
R167 VIN.n173 VIN.n172 10.4732
R168 VIN.n197 VIN.n109 10.4732
R169 VIN.n42 VIN.n28 9.69747
R170 VIN.n71 VIN.n16 9.69747
R171 VIN.n91 VIN.n6 9.69747
R172 VIN.n147 VIN.n133 9.69747
R173 VIN.n176 VIN.n121 9.69747
R174 VIN.n196 VIN.n111 9.69747
R175 VIN.n98 VIN.n0 9.45567
R176 VIN.n203 VIN.n105 9.45567
R177 VIN.n32 VIN.n31 9.3005
R178 VIN.n39 VIN.n38 9.3005
R179 VIN.n41 VIN.n40 9.3005
R180 VIN.n28 VIN.n27 9.3005
R181 VIN.n47 VIN.n46 9.3005
R182 VIN.n49 VIN.n48 9.3005
R183 VIN.n50 VIN.n23 9.3005
R184 VIN.n57 VIN.n56 9.3005
R185 VIN.n59 VIN.n58 9.3005
R186 VIN.n20 VIN.n19 9.3005
R187 VIN.n65 VIN.n64 9.3005
R188 VIN.n67 VIN.n66 9.3005
R189 VIN.n16 VIN.n15 9.3005
R190 VIN.n73 VIN.n72 9.3005
R191 VIN.n75 VIN.n74 9.3005
R192 VIN.n12 VIN.n11 9.3005
R193 VIN.n81 VIN.n80 9.3005
R194 VIN.n83 VIN.n82 9.3005
R195 VIN.n8 VIN.n7 9.3005
R196 VIN.n89 VIN.n88 9.3005
R197 VIN.n91 VIN.n90 9.3005
R198 VIN.n4 VIN.n3 9.3005
R199 VIN.n97 VIN.n96 9.3005
R200 VIN.n99 VIN.n98 9.3005
R201 VIN.n186 VIN.n185 9.3005
R202 VIN.n188 VIN.n187 9.3005
R203 VIN.n113 VIN.n112 9.3005
R204 VIN.n194 VIN.n193 9.3005
R205 VIN.n196 VIN.n195 9.3005
R206 VIN.n109 VIN.n108 9.3005
R207 VIN.n202 VIN.n201 9.3005
R208 VIN.n204 VIN.n203 9.3005
R209 VIN.n180 VIN.n179 9.3005
R210 VIN.n178 VIN.n177 9.3005
R211 VIN.n121 VIN.n120 9.3005
R212 VIN.n172 VIN.n171 9.3005
R213 VIN.n170 VIN.n169 9.3005
R214 VIN.n125 VIN.n124 9.3005
R215 VIN.n164 VIN.n163 9.3005
R216 VIN.n137 VIN.n136 9.3005
R217 VIN.n144 VIN.n143 9.3005
R218 VIN.n146 VIN.n145 9.3005
R219 VIN.n133 VIN.n132 9.3005
R220 VIN.n152 VIN.n151 9.3005
R221 VIN.n154 VIN.n153 9.3005
R222 VIN.n155 VIN.n128 9.3005
R223 VIN.n162 VIN.n161 9.3005
R224 VIN.n117 VIN.n116 9.3005
R225 VIN.n41 VIN.n30 8.92171
R226 VIN.n72 VIN.n14 8.92171
R227 VIN.n88 VIN.n87 8.92171
R228 VIN.n146 VIN.n135 8.92171
R229 VIN.n177 VIN.n119 8.92171
R230 VIN.n193 VIN.n192 8.92171
R231 VIN.n38 VIN.n37 8.14595
R232 VIN.n76 VIN.n75 8.14595
R233 VIN.n84 VIN.n8 8.14595
R234 VIN.n143 VIN.n142 8.14595
R235 VIN.n181 VIN.n180 8.14595
R236 VIN.n189 VIN.n113 8.14595
R237 VIN.n34 VIN.n32 7.3702
R238 VIN.n79 VIN.n12 7.3702
R239 VIN.n83 VIN.n10 7.3702
R240 VIN.n139 VIN.n137 7.3702
R241 VIN.n184 VIN.n117 7.3702
R242 VIN.n188 VIN.n115 7.3702
R243 VIN.n80 VIN.n79 6.59444
R244 VIN.n80 VIN.n10 6.59444
R245 VIN.n185 VIN.n184 6.59444
R246 VIN.n185 VIN.n115 6.59444
R247 VIN.n37 VIN.n32 5.81868
R248 VIN.n76 VIN.n12 5.81868
R249 VIN.n84 VIN.n83 5.81868
R250 VIN.n142 VIN.n137 5.81868
R251 VIN.n181 VIN.n117 5.81868
R252 VIN.n189 VIN.n188 5.81868
R253 VIN.n209 VIN.t3 5.73963
R254 VIN.n209 VIN.t4 5.73963
R255 VIN.n38 VIN.n30 5.04292
R256 VIN.n75 VIN.n14 5.04292
R257 VIN.n87 VIN.n8 5.04292
R258 VIN.n143 VIN.n135 5.04292
R259 VIN.n180 VIN.n119 5.04292
R260 VIN.n192 VIN.n113 5.04292
R261 VIN.n42 VIN.n41 4.26717
R262 VIN.n72 VIN.n71 4.26717
R263 VIN.n88 VIN.n6 4.26717
R264 VIN.n147 VIN.n146 4.26717
R265 VIN.n177 VIN.n176 4.26717
R266 VIN.n193 VIN.n111 4.26717
R267 VIN.n45 VIN.n28 3.49141
R268 VIN.n68 VIN.n16 3.49141
R269 VIN.n92 VIN.n91 3.49141
R270 VIN.n150 VIN.n133 3.49141
R271 VIN.n173 VIN.n121 3.49141
R272 VIN.n197 VIN.n196 3.49141
R273 VIN.n46 VIN.n26 2.71565
R274 VIN.n67 VIN.n18 2.71565
R275 VIN.n95 VIN.n4 2.71565
R276 VIN.n151 VIN.n131 2.71565
R277 VIN.n172 VIN.n123 2.71565
R278 VIN.n200 VIN.n109 2.71565
R279 VIN.n208 VIN.n104 2.52636
R280 VIN.n33 VIN.n31 2.41282
R281 VIN.n138 VIN.n136 2.41282
R282 VIN.n51 VIN.n49 1.93989
R283 VIN.n64 VIN.n63 1.93989
R284 VIN.n96 VIN.n2 1.93989
R285 VIN.n156 VIN.n154 1.93989
R286 VIN.n169 VIN.n168 1.93989
R287 VIN.n201 VIN.n107 1.93989
R288 VIN.n103 VIN.t7 1.72949
R289 VIN.n103 VIN.t0 1.72949
R290 VIN.n50 VIN.n24 1.16414
R291 VIN.n60 VIN.n20 1.16414
R292 VIN.n100 VIN.n99 1.16414
R293 VIN.n155 VIN.n129 1.16414
R294 VIN.n165 VIN.n125 1.16414
R295 VIN.n205 VIN.n204 1.16414
R296 VIN.n211 VIN.n210 0.819465
R297 VIN.n56 VIN.n55 0.388379
R298 VIN.n59 VIN.n22 0.388379
R299 VIN.n102 VIN.n0 0.388379
R300 VIN.n161 VIN.n160 0.388379
R301 VIN.n164 VIN.n127 0.388379
R302 VIN.n207 VIN.n105 0.388379
R303 VIN.n39 VIN.n31 0.155672
R304 VIN.n40 VIN.n39 0.155672
R305 VIN.n40 VIN.n27 0.155672
R306 VIN.n47 VIN.n27 0.155672
R307 VIN.n48 VIN.n47 0.155672
R308 VIN.n48 VIN.n23 0.155672
R309 VIN.n57 VIN.n23 0.155672
R310 VIN.n58 VIN.n57 0.155672
R311 VIN.n58 VIN.n19 0.155672
R312 VIN.n65 VIN.n19 0.155672
R313 VIN.n66 VIN.n65 0.155672
R314 VIN.n66 VIN.n15 0.155672
R315 VIN.n73 VIN.n15 0.155672
R316 VIN.n74 VIN.n73 0.155672
R317 VIN.n74 VIN.n11 0.155672
R318 VIN.n81 VIN.n11 0.155672
R319 VIN.n82 VIN.n81 0.155672
R320 VIN.n82 VIN.n7 0.155672
R321 VIN.n89 VIN.n7 0.155672
R322 VIN.n90 VIN.n89 0.155672
R323 VIN.n90 VIN.n3 0.155672
R324 VIN.n97 VIN.n3 0.155672
R325 VIN.n98 VIN.n97 0.155672
R326 VIN.n144 VIN.n136 0.155672
R327 VIN.n145 VIN.n144 0.155672
R328 VIN.n145 VIN.n132 0.155672
R329 VIN.n152 VIN.n132 0.155672
R330 VIN.n153 VIN.n152 0.155672
R331 VIN.n153 VIN.n128 0.155672
R332 VIN.n162 VIN.n128 0.155672
R333 VIN.n163 VIN.n162 0.155672
R334 VIN.n163 VIN.n124 0.155672
R335 VIN.n170 VIN.n124 0.155672
R336 VIN.n171 VIN.n170 0.155672
R337 VIN.n171 VIN.n120 0.155672
R338 VIN.n178 VIN.n120 0.155672
R339 VIN.n179 VIN.n178 0.155672
R340 VIN.n179 VIN.n116 0.155672
R341 VIN.n186 VIN.n116 0.155672
R342 VIN.n187 VIN.n186 0.155672
R343 VIN.n187 VIN.n112 0.155672
R344 VIN.n194 VIN.n112 0.155672
R345 VIN.n195 VIN.n194 0.155672
R346 VIN.n195 VIN.n108 0.155672
R347 VIN.n202 VIN.n108 0.155672
R348 VIN.n203 VIN.n202 0.155672
R349 VIN VIN.n211 0.00481034
R350 VSS.n102 VSS.n56 603.013
R351 VSS.n71 VSS.n54 603.013
R352 VSS.n201 VSS.n18 603.013
R353 VSS.n203 VSS.n14 603.013
R354 VSS.n57 VSS.n56 585
R355 VSS.n56 VSS.n55 585
R356 VSS.n107 VSS.n106 585
R357 VSS.n108 VSS.n107 585
R358 VSS.n48 VSS.n47 585
R359 VSS.n49 VSS.n48 585
R360 VSS.n118 VSS.n117 585
R361 VSS.n117 VSS.n116 585
R362 VSS.n45 VSS.n44 585
R363 VSS.n44 VSS.n43 585
R364 VSS.n123 VSS.n122 585
R365 VSS.n124 VSS.n123 585
R366 VSS.n35 VSS.n34 585
R367 VSS.n36 VSS.n35 585
R368 VSS.n134 VSS.n133 585
R369 VSS.n133 VSS.n132 585
R370 VSS.n32 VSS.n31 585
R371 VSS.n31 VSS.n30 585
R372 VSS.n139 VSS.n138 585
R373 VSS.n140 VSS.n139 585
R374 VSS.n29 VSS.n28 585
R375 VSS.n141 VSS.n29 585
R376 VSS.n144 VSS.n143 585
R377 VSS.n143 VSS.n142 585
R378 VSS.n26 VSS.n25 585
R379 VSS.n25 VSS.n24 585
R380 VSS.n149 VSS.n148 585
R381 VSS.n150 VSS.n149 585
R382 VSS.n22 VSS.n21 585
R383 VSS.n151 VSS.n22 585
R384 VSS.n154 VSS.n153 585
R385 VSS.n153 VSS.n152 585
R386 VSS.n19 VSS.n17 585
R387 VSS.n17 VSS.n15 585
R388 VSS.n201 VSS.n200 585
R389 VSS.n202 VSS.n201 585
R390 VSS.n204 VSS.n203 585
R391 VSS.n203 VSS.n202 585
R392 VSS.n13 VSS.n11 585
R393 VSS.n15 VSS.n13 585
R394 VSS.n208 VSS.n10 585
R395 VSS.n152 VSS.n10 585
R396 VSS.n209 VSS.n9 585
R397 VSS.n151 VSS.n9 585
R398 VSS.n210 VSS.n8 585
R399 VSS.n150 VSS.n8 585
R400 VSS.n23 VSS.n6 585
R401 VSS.n24 VSS.n23 585
R402 VSS.n214 VSS.n5 585
R403 VSS.n142 VSS.n5 585
R404 VSS.n215 VSS.n4 585
R405 VSS.n141 VSS.n4 585
R406 VSS.n216 VSS.n3 585
R407 VSS.n140 VSS.n3 585
R408 VSS.n38 VSS.n2 585
R409 VSS.n38 VSS.n30 585
R410 VSS.n131 VSS.n130 585
R411 VSS.n132 VSS.n131 585
R412 VSS.n39 VSS.n37 585
R413 VSS.n37 VSS.n36 585
R414 VSS.n126 VSS.n125 585
R415 VSS.n125 VSS.n124 585
R416 VSS.n42 VSS.n41 585
R417 VSS.n43 VSS.n42 585
R418 VSS.n115 VSS.n114 585
R419 VSS.n116 VSS.n115 585
R420 VSS.n51 VSS.n50 585
R421 VSS.n50 VSS.n49 585
R422 VSS.n110 VSS.n109 585
R423 VSS.n109 VSS.n108 585
R424 VSS.n54 VSS.n53 585
R425 VSS.n55 VSS.n54 585
R426 VSS.n14 VSS.n12 585
R427 VSS.n172 VSS.n170 585
R428 VSS.n174 VSS.n173 585
R429 VSS.n175 VSS.n165 585
R430 VSS.n177 VSS.n176 585
R431 VSS.n179 VSS.n163 585
R432 VSS.n181 VSS.n180 585
R433 VSS.n182 VSS.n162 585
R434 VSS.n184 VSS.n183 585
R435 VSS.n186 VSS.n160 585
R436 VSS.n188 VSS.n187 585
R437 VSS.n189 VSS.n159 585
R438 VSS.n191 VSS.n190 585
R439 VSS.n193 VSS.n158 585
R440 VSS.n194 VSS.n157 585
R441 VSS.n197 VSS.n196 585
R442 VSS.n198 VSS.n18 585
R443 VSS.n18 VSS.n16 585
R444 VSS.n103 VSS.n102 585
R445 VSS.n59 VSS.n58 585
R446 VSS.n99 VSS.n98 585
R447 VSS.n100 VSS.n99 585
R448 VSS.n97 VSS.n67 585
R449 VSS.n96 VSS.n95 585
R450 VSS.n94 VSS.n93 585
R451 VSS.n92 VSS.n91 585
R452 VSS.n90 VSS.n89 585
R453 VSS.n88 VSS.n87 585
R454 VSS.n86 VSS.n85 585
R455 VSS.n84 VSS.n83 585
R456 VSS.n82 VSS.n81 585
R457 VSS.n80 VSS.n79 585
R458 VSS.n78 VSS.n77 585
R459 VSS.n76 VSS.n75 585
R460 VSS.n74 VSS.n73 585
R461 VSS.n72 VSS.n71 585
R462 VSS.n100 VSS.n55 426.336
R463 VSS.n202 VSS.n16 426.336
R464 VSS.n166 VSS.t0 338.18
R465 VSS.n68 VSS.t4 338.18
R466 VSS.n108 VSS.n55 273.293
R467 VSS.n116 VSS.n49 273.293
R468 VSS.n116 VSS.n43 273.293
R469 VSS.n124 VSS.n43 273.293
R470 VSS.n132 VSS.n36 273.293
R471 VSS.n140 VSS.n30 273.293
R472 VSS.n142 VSS.n141 273.293
R473 VSS.n150 VSS.n24 273.293
R474 VSS.n151 VSS.n150 273.293
R475 VSS.n152 VSS.n151 273.293
R476 VSS.n202 VSS.n15 273.293
R477 VSS.n171 VSS.n16 256.663
R478 VSS.n169 VSS.n16 256.663
R479 VSS.n178 VSS.n16 256.663
R480 VSS.n164 VSS.n16 256.663
R481 VSS.n185 VSS.n16 256.663
R482 VSS.n161 VSS.n16 256.663
R483 VSS.n192 VSS.n16 256.663
R484 VSS.n195 VSS.n16 256.663
R485 VSS.n101 VSS.n100 256.663
R486 VSS.n100 VSS.n60 256.663
R487 VSS.n100 VSS.n61 256.663
R488 VSS.n100 VSS.n62 256.663
R489 VSS.n100 VSS.n63 256.663
R490 VSS.n100 VSS.n64 256.663
R491 VSS.n100 VSS.n65 256.663
R492 VSS.n100 VSS.n66 256.663
R493 VSS.n107 VSS.n56 240.244
R494 VSS.n107 VSS.n48 240.244
R495 VSS.n117 VSS.n48 240.244
R496 VSS.n117 VSS.n44 240.244
R497 VSS.n123 VSS.n44 240.244
R498 VSS.n123 VSS.n35 240.244
R499 VSS.n133 VSS.n35 240.244
R500 VSS.n133 VSS.n31 240.244
R501 VSS.n139 VSS.n31 240.244
R502 VSS.n139 VSS.n29 240.244
R503 VSS.n143 VSS.n29 240.244
R504 VSS.n143 VSS.n25 240.244
R505 VSS.n149 VSS.n25 240.244
R506 VSS.n149 VSS.n22 240.244
R507 VSS.n153 VSS.n22 240.244
R508 VSS.n153 VSS.n17 240.244
R509 VSS.n201 VSS.n17 240.244
R510 VSS.n109 VSS.n54 240.244
R511 VSS.n109 VSS.n50 240.244
R512 VSS.n115 VSS.n50 240.244
R513 VSS.n115 VSS.n42 240.244
R514 VSS.n125 VSS.n42 240.244
R515 VSS.n125 VSS.n37 240.244
R516 VSS.n131 VSS.n37 240.244
R517 VSS.n131 VSS.n38 240.244
R518 VSS.n38 VSS.n3 240.244
R519 VSS.n4 VSS.n3 240.244
R520 VSS.n5 VSS.n4 240.244
R521 VSS.n23 VSS.n5 240.244
R522 VSS.n23 VSS.n8 240.244
R523 VSS.n9 VSS.n8 240.244
R524 VSS.n10 VSS.n9 240.244
R525 VSS.n13 VSS.n10 240.244
R526 VSS.n203 VSS.n13 240.244
R527 VSS.n124 VSS.t11 177.641
R528 VSS.t10 VSS.n24 177.641
R529 VSS.n99 VSS.n59 163.367
R530 VSS.n99 VSS.n67 163.367
R531 VSS.n95 VSS.n94 163.367
R532 VSS.n91 VSS.n90 163.367
R533 VSS.n87 VSS.n86 163.367
R534 VSS.n83 VSS.n82 163.367
R535 VSS.n79 VSS.n78 163.367
R536 VSS.n75 VSS.n74 163.367
R537 VSS.n196 VSS.n18 163.367
R538 VSS.n194 VSS.n193 163.367
R539 VSS.n191 VSS.n159 163.367
R540 VSS.n187 VSS.n186 163.367
R541 VSS.n184 VSS.n162 163.367
R542 VSS.n180 VSS.n179 163.367
R543 VSS.n177 VSS.n165 163.367
R544 VSS.n173 VSS.n172 163.367
R545 VSS.n108 VSS.t5 155.776
R546 VSS.t1 VSS.n15 155.776
R547 VSS.n132 VSS.t8 150.311
R548 VSS.n141 VSS.t9 150.311
R549 VSS.t8 VSS.n30 122.981
R550 VSS.t9 VSS.n140 122.981
R551 VSS.t5 VSS.n49 117.516
R552 VSS.n152 VSS.t1 117.516
R553 VSS.t11 VSS.n36 95.6527
R554 VSS.n142 VSS.t10 95.6527
R555 VSS.n166 VSS.t2 92.0917
R556 VSS.n68 VSS.t7 92.0917
R557 VSS.n167 VSS.t3 73.6675
R558 VSS.n69 VSS.t6 73.6675
R559 VSS.n102 VSS.n101 71.676
R560 VSS.n67 VSS.n60 71.676
R561 VSS.n94 VSS.n61 71.676
R562 VSS.n90 VSS.n62 71.676
R563 VSS.n86 VSS.n63 71.676
R564 VSS.n82 VSS.n64 71.676
R565 VSS.n78 VSS.n65 71.676
R566 VSS.n74 VSS.n66 71.676
R567 VSS.n195 VSS.n194 71.676
R568 VSS.n192 VSS.n191 71.676
R569 VSS.n187 VSS.n161 71.676
R570 VSS.n185 VSS.n184 71.676
R571 VSS.n180 VSS.n164 71.676
R572 VSS.n178 VSS.n177 71.676
R573 VSS.n173 VSS.n169 71.676
R574 VSS.n171 VSS.n14 71.676
R575 VSS.n172 VSS.n171 71.676
R576 VSS.n169 VSS.n165 71.676
R577 VSS.n179 VSS.n178 71.676
R578 VSS.n164 VSS.n162 71.676
R579 VSS.n186 VSS.n185 71.676
R580 VSS.n161 VSS.n159 71.676
R581 VSS.n193 VSS.n192 71.676
R582 VSS.n196 VSS.n195 71.676
R583 VSS.n101 VSS.n59 71.676
R584 VSS.n95 VSS.n60 71.676
R585 VSS.n91 VSS.n61 71.676
R586 VSS.n87 VSS.n62 71.676
R587 VSS.n83 VSS.n63 71.676
R588 VSS.n79 VSS.n64 71.676
R589 VSS.n75 VSS.n65 71.676
R590 VSS.n71 VSS.n66 71.676
R591 VSS.n168 VSS.n167 34.3278
R592 VSS.n70 VSS.n69 34.3278
R593 VSS.n199 VSS.n198 30.7676
R594 VSS.n205 VSS.n12 30.7676
R595 VSS.n104 VSS.n103 30.7676
R596 VSS.n72 VSS.n52 30.7676
R597 VSS.n106 VSS.n57 19.3944
R598 VSS.n106 VSS.n47 19.3944
R599 VSS.n118 VSS.n47 19.3944
R600 VSS.n118 VSS.n45 19.3944
R601 VSS.n122 VSS.n45 19.3944
R602 VSS.n122 VSS.n34 19.3944
R603 VSS.n134 VSS.n34 19.3944
R604 VSS.n134 VSS.n32 19.3944
R605 VSS.n138 VSS.n32 19.3944
R606 VSS.n138 VSS.n28 19.3944
R607 VSS.n144 VSS.n28 19.3944
R608 VSS.n144 VSS.n26 19.3944
R609 VSS.n148 VSS.n26 19.3944
R610 VSS.n148 VSS.n21 19.3944
R611 VSS.n154 VSS.n21 19.3944
R612 VSS.n154 VSS.n19 19.3944
R613 VSS.n200 VSS.n19 19.3944
R614 VSS.n110 VSS.n53 19.3944
R615 VSS.n110 VSS.n51 19.3944
R616 VSS.n114 VSS.n51 19.3944
R617 VSS.n114 VSS.n41 19.3944
R618 VSS.n126 VSS.n41 19.3944
R619 VSS.n126 VSS.n39 19.3944
R620 VSS.n130 VSS.n39 19.3944
R621 VSS.n130 VSS.n2 19.3944
R622 VSS.n216 VSS.n2 19.3944
R623 VSS.n216 VSS.n215 19.3944
R624 VSS.n215 VSS.n214 19.3944
R625 VSS.n214 VSS.n6 19.3944
R626 VSS.n210 VSS.n6 19.3944
R627 VSS.n210 VSS.n209 19.3944
R628 VSS.n209 VSS.n208 19.3944
R629 VSS.n208 VSS.n11 19.3944
R630 VSS.n204 VSS.n11 19.3944
R631 VSS.n167 VSS.n166 18.4247
R632 VSS.n69 VSS.n68 18.4247
R633 VSS.n198 VSS.n197 10.6151
R634 VSS.n197 VSS.n157 10.6151
R635 VSS.n158 VSS.n157 10.6151
R636 VSS.n190 VSS.n158 10.6151
R637 VSS.n190 VSS.n189 10.6151
R638 VSS.n189 VSS.n188 10.6151
R639 VSS.n188 VSS.n160 10.6151
R640 VSS.n183 VSS.n160 10.6151
R641 VSS.n183 VSS.n182 10.6151
R642 VSS.n182 VSS.n181 10.6151
R643 VSS.n181 VSS.n163 10.6151
R644 VSS.n176 VSS.n163 10.6151
R645 VSS.n176 VSS.n175 10.6151
R646 VSS.n175 VSS.n174 10.6151
R647 VSS.n170 VSS.n12 10.6151
R648 VSS.n103 VSS.n58 10.6151
R649 VSS.n98 VSS.n58 10.6151
R650 VSS.n98 VSS.n97 10.6151
R651 VSS.n97 VSS.n96 10.6151
R652 VSS.n96 VSS.n93 10.6151
R653 VSS.n93 VSS.n92 10.6151
R654 VSS.n92 VSS.n89 10.6151
R655 VSS.n89 VSS.n88 10.6151
R656 VSS.n88 VSS.n85 10.6151
R657 VSS.n85 VSS.n84 10.6151
R658 VSS.n84 VSS.n81 10.6151
R659 VSS.n81 VSS.n80 10.6151
R660 VSS.n80 VSS.n77 10.6151
R661 VSS.n77 VSS.n76 10.6151
R662 VSS.n73 VSS.n72 10.6151
R663 VSS.n170 VSS.n168 9.67855
R664 VSS.n73 VSS.n70 9.67855
R665 VSS.n215 VSS.n0 9.3005
R666 VSS.n214 VSS.n213 9.3005
R667 VSS.n212 VSS.n6 9.3005
R668 VSS.n211 VSS.n210 9.3005
R669 VSS.n209 VSS.n7 9.3005
R670 VSS.n208 VSS.n207 9.3005
R671 VSS.n206 VSS.n11 9.3005
R672 VSS.n205 VSS.n204 9.3005
R673 VSS.n104 VSS.n57 9.3005
R674 VSS.n106 VSS.n105 9.3005
R675 VSS.n47 VSS.n46 9.3005
R676 VSS.n119 VSS.n118 9.3005
R677 VSS.n120 VSS.n45 9.3005
R678 VSS.n122 VSS.n121 9.3005
R679 VSS.n34 VSS.n33 9.3005
R680 VSS.n135 VSS.n134 9.3005
R681 VSS.n136 VSS.n32 9.3005
R682 VSS.n138 VSS.n137 9.3005
R683 VSS.n28 VSS.n27 9.3005
R684 VSS.n145 VSS.n144 9.3005
R685 VSS.n146 VSS.n26 9.3005
R686 VSS.n148 VSS.n147 9.3005
R687 VSS.n21 VSS.n20 9.3005
R688 VSS.n155 VSS.n154 9.3005
R689 VSS.n156 VSS.n19 9.3005
R690 VSS.n200 VSS.n199 9.3005
R691 VSS.n111 VSS.n110 9.3005
R692 VSS.n112 VSS.n51 9.3005
R693 VSS.n114 VSS.n113 9.3005
R694 VSS.n41 VSS.n40 9.3005
R695 VSS.n127 VSS.n126 9.3005
R696 VSS.n128 VSS.n39 9.3005
R697 VSS.n130 VSS.n129 9.3005
R698 VSS.n2 VSS.n1 9.3005
R699 VSS.n53 VSS.n52 9.3005
R700 VSS VSS.n216 9.3005
R701 VSS.n174 VSS.n168 0.937085
R702 VSS.n76 VSS.n70 0.937085
R703 VSS VSS.n0 0.152939
R704 VSS.n213 VSS.n0 0.152939
R705 VSS.n213 VSS.n212 0.152939
R706 VSS.n212 VSS.n211 0.152939
R707 VSS.n211 VSS.n7 0.152939
R708 VSS.n207 VSS.n7 0.152939
R709 VSS.n207 VSS.n206 0.152939
R710 VSS.n206 VSS.n205 0.152939
R711 VSS.n105 VSS.n104 0.152939
R712 VSS.n105 VSS.n46 0.152939
R713 VSS.n119 VSS.n46 0.152939
R714 VSS.n120 VSS.n119 0.152939
R715 VSS.n121 VSS.n120 0.152939
R716 VSS.n121 VSS.n33 0.152939
R717 VSS.n135 VSS.n33 0.152939
R718 VSS.n136 VSS.n135 0.152939
R719 VSS.n137 VSS.n136 0.152939
R720 VSS.n137 VSS.n27 0.152939
R721 VSS.n145 VSS.n27 0.152939
R722 VSS.n146 VSS.n145 0.152939
R723 VSS.n147 VSS.n146 0.152939
R724 VSS.n147 VSS.n20 0.152939
R725 VSS.n155 VSS.n20 0.152939
R726 VSS.n156 VSS.n155 0.152939
R727 VSS.n199 VSS.n156 0.152939
R728 VSS.n111 VSS.n52 0.152939
R729 VSS.n112 VSS.n111 0.152939
R730 VSS.n113 VSS.n112 0.152939
R731 VSS.n113 VSS.n40 0.152939
R732 VSS.n127 VSS.n40 0.152939
R733 VSS.n128 VSS.n127 0.152939
R734 VSS.n129 VSS.n128 0.152939
R735 VSS.n129 VSS.n1 0.152939
R736 VSS VSS.n1 0.1255
R737 VGP.n7 VGP.t2 207.083
R738 VGP.n8 VGP.t3 174.262
R739 VGP.n3 VGP.t1 174.262
R740 VGP.n27 VGP.t0 174.262
R741 VGP.n26 VGP.n0 161.3
R742 VGP.n25 VGP.n24 161.3
R743 VGP.n23 VGP.n1 161.3
R744 VGP.n22 VGP.n21 161.3
R745 VGP.n20 VGP.n2 161.3
R746 VGP.n19 VGP.n18 161.3
R747 VGP.n17 VGP.n16 161.3
R748 VGP.n15 VGP.n4 161.3
R749 VGP.n14 VGP.n13 161.3
R750 VGP.n12 VGP.n5 161.3
R751 VGP.n11 VGP.n10 161.3
R752 VGP.n9 VGP.n6 161.3
R753 VGP.n28 VGP.n27 103.776
R754 VGP.n8 VGP.n7 61.9251
R755 VGP.n14 VGP.n5 56.5617
R756 VGP.n21 VGP.n1 56.5617
R757 VGP.n10 VGP.n5 24.5923
R758 VGP.n10 VGP.n9 24.5923
R759 VGP.n21 VGP.n20 24.5923
R760 VGP.n20 VGP.n19 24.5923
R761 VGP.n16 VGP.n15 24.5923
R762 VGP.n15 VGP.n14 24.5923
R763 VGP.n26 VGP.n25 24.5923
R764 VGP.n25 VGP.n1 24.5923
R765 VGP.n19 VGP.n3 14.0178
R766 VGP.n9 VGP.n8 10.575
R767 VGP.n16 VGP.n3 10.575
R768 VGP.n27 VGP.n26 7.13213
R769 VGP.n7 VGP.n6 7.0132
R770 VGP.n28 VGP.n0 0.278335
R771 VGP VGP.n28 0.219773
R772 VGP.n24 VGP.n0 0.189894
R773 VGP.n24 VGP.n23 0.189894
R774 VGP.n23 VGP.n22 0.189894
R775 VGP.n22 VGP.n2 0.189894
R776 VGP.n18 VGP.n2 0.189894
R777 VGP.n18 VGP.n17 0.189894
R778 VGP.n17 VGP.n4 0.189894
R779 VGP.n13 VGP.n4 0.189894
R780 VGP.n13 VGP.n12 0.189894
R781 VGP.n12 VGP.n11 0.189894
R782 VGP.n11 VGP.n6 0.189894
R783 VCC.n443 VCC.t2 554.835
R784 VCC.n157 VCC.t7 554.835
R785 VCC.n444 VCC.t3 498.01
R786 VCC.n158 VCC.t6 498.01
R787 VCC.n443 VCC.t0 382.308
R788 VCC.n157 VCC.t4 382.308
R789 VCC.n571 VCC.n29 354.147
R790 VCC.n569 VCC.n33 354.147
R791 VCC.n283 VCC.n126 354.147
R792 VCC.n285 VCC.n124 354.147
R793 VCC.n569 VCC.n568 185
R794 VCC.n570 VCC.n569 185
R795 VCC.n34 VCC.n32 185
R796 VCC.n32 VCC.n30 185
R797 VCC.n409 VCC.n408 185
R798 VCC.n408 VCC.n407 185
R799 VCC.n37 VCC.n36 185
R800 VCC.n406 VCC.n37 185
R801 VCC.n404 VCC.n403 185
R802 VCC.n405 VCC.n404 185
R803 VCC.n41 VCC.n40 185
R804 VCC.n40 VCC.n39 185
R805 VCC.n399 VCC.n398 185
R806 VCC.n398 VCC.n397 185
R807 VCC.n44 VCC.n43 185
R808 VCC.n396 VCC.n44 185
R809 VCC.n394 VCC.n393 185
R810 VCC.n395 VCC.n394 185
R811 VCC.n48 VCC.n47 185
R812 VCC.n47 VCC.n46 185
R813 VCC.n389 VCC.n388 185
R814 VCC.n388 VCC.n387 185
R815 VCC.n51 VCC.n50 185
R816 VCC.n386 VCC.n51 185
R817 VCC.n384 VCC.n383 185
R818 VCC.n385 VCC.n384 185
R819 VCC.n55 VCC.n54 185
R820 VCC.n54 VCC.n53 185
R821 VCC.n379 VCC.n378 185
R822 VCC.n378 VCC.n377 185
R823 VCC.n58 VCC.n57 185
R824 VCC.n376 VCC.n58 185
R825 VCC.n374 VCC.n373 185
R826 VCC.n375 VCC.n374 185
R827 VCC.n62 VCC.n61 185
R828 VCC.n61 VCC.n60 185
R829 VCC.n369 VCC.n368 185
R830 VCC.n368 VCC.n367 185
R831 VCC.n65 VCC.n64 185
R832 VCC.n366 VCC.n65 185
R833 VCC.n364 VCC.n363 185
R834 VCC.n365 VCC.n364 185
R835 VCC.n68 VCC.n67 185
R836 VCC.n67 VCC.n66 185
R837 VCC.n359 VCC.n358 185
R838 VCC.n358 VCC.n357 185
R839 VCC.n71 VCC.n70 185
R840 VCC.n348 VCC.n71 185
R841 VCC.n347 VCC.n346 185
R842 VCC.n349 VCC.n347 185
R843 VCC.n80 VCC.n79 185
R844 VCC.n79 VCC.n78 185
R845 VCC.n342 VCC.n341 185
R846 VCC.n341 VCC.n340 185
R847 VCC.n83 VCC.n82 185
R848 VCC.n84 VCC.n83 185
R849 VCC.n331 VCC.n330 185
R850 VCC.n332 VCC.n331 185
R851 VCC.n91 VCC.n90 185
R852 VCC.n96 VCC.n90 185
R853 VCC.n326 VCC.n325 185
R854 VCC.n325 VCC.n324 185
R855 VCC.n94 VCC.n93 185
R856 VCC.n95 VCC.n94 185
R857 VCC.n315 VCC.n314 185
R858 VCC.n316 VCC.n315 185
R859 VCC.n104 VCC.n103 185
R860 VCC.n103 VCC.n102 185
R861 VCC.n310 VCC.n309 185
R862 VCC.n309 VCC.n308 185
R863 VCC.n107 VCC.n106 185
R864 VCC.n108 VCC.n107 185
R865 VCC.n299 VCC.n298 185
R866 VCC.n300 VCC.n299 185
R867 VCC.n115 VCC.n114 185
R868 VCC.n120 VCC.n114 185
R869 VCC.n294 VCC.n293 185
R870 VCC.n293 VCC.n292 185
R871 VCC.n118 VCC.n117 185
R872 VCC.n119 VCC.n118 185
R873 VCC.n283 VCC.n282 185
R874 VCC.n284 VCC.n283 185
R875 VCC.n286 VCC.n285 185
R876 VCC.n285 VCC.n284 185
R877 VCC.n122 VCC.n121 185
R878 VCC.n121 VCC.n119 185
R879 VCC.n291 VCC.n290 185
R880 VCC.n292 VCC.n291 185
R881 VCC.n113 VCC.n112 185
R882 VCC.n120 VCC.n113 185
R883 VCC.n302 VCC.n301 185
R884 VCC.n301 VCC.n300 185
R885 VCC.n110 VCC.n109 185
R886 VCC.n109 VCC.n108 185
R887 VCC.n307 VCC.n306 185
R888 VCC.n308 VCC.n307 185
R889 VCC.n101 VCC.n100 185
R890 VCC.n102 VCC.n101 185
R891 VCC.n318 VCC.n317 185
R892 VCC.n317 VCC.n316 185
R893 VCC.n98 VCC.n97 185
R894 VCC.n97 VCC.n95 185
R895 VCC.n323 VCC.n322 185
R896 VCC.n324 VCC.n323 185
R897 VCC.n89 VCC.n88 185
R898 VCC.n96 VCC.n89 185
R899 VCC.n334 VCC.n333 185
R900 VCC.n333 VCC.n332 185
R901 VCC.n86 VCC.n85 185
R902 VCC.n85 VCC.n84 185
R903 VCC.n339 VCC.n338 185
R904 VCC.n340 VCC.n339 185
R905 VCC.n77 VCC.n76 185
R906 VCC.n78 VCC.n77 185
R907 VCC.n351 VCC.n350 185
R908 VCC.n350 VCC.n349 185
R909 VCC.n74 VCC.n72 185
R910 VCC.n348 VCC.n72 185
R911 VCC.n356 VCC.n355 185
R912 VCC.n357 VCC.n356 185
R913 VCC.n73 VCC.n2 185
R914 VCC.n73 VCC.n66 185
R915 VCC.n602 VCC.n3 185
R916 VCC.n365 VCC.n3 185
R917 VCC.n601 VCC.n4 185
R918 VCC.n366 VCC.n4 185
R919 VCC.n600 VCC.n5 185
R920 VCC.n367 VCC.n5 185
R921 VCC.n59 VCC.n6 185
R922 VCC.n60 VCC.n59 185
R923 VCC.n596 VCC.n8 185
R924 VCC.n375 VCC.n8 185
R925 VCC.n595 VCC.n9 185
R926 VCC.n376 VCC.n9 185
R927 VCC.n594 VCC.n10 185
R928 VCC.n377 VCC.n10 185
R929 VCC.n52 VCC.n11 185
R930 VCC.n53 VCC.n52 185
R931 VCC.n590 VCC.n13 185
R932 VCC.n385 VCC.n13 185
R933 VCC.n589 VCC.n14 185
R934 VCC.n386 VCC.n14 185
R935 VCC.n588 VCC.n15 185
R936 VCC.n387 VCC.n15 185
R937 VCC.n45 VCC.n16 185
R938 VCC.n46 VCC.n45 185
R939 VCC.n584 VCC.n18 185
R940 VCC.n395 VCC.n18 185
R941 VCC.n583 VCC.n19 185
R942 VCC.n396 VCC.n19 185
R943 VCC.n582 VCC.n20 185
R944 VCC.n397 VCC.n20 185
R945 VCC.n38 VCC.n21 185
R946 VCC.n39 VCC.n38 185
R947 VCC.n578 VCC.n23 185
R948 VCC.n405 VCC.n23 185
R949 VCC.n577 VCC.n24 185
R950 VCC.n406 VCC.n24 185
R951 VCC.n576 VCC.n25 185
R952 VCC.n407 VCC.n25 185
R953 VCC.n28 VCC.n26 185
R954 VCC.n30 VCC.n28 185
R955 VCC.n572 VCC.n571 185
R956 VCC.n571 VCC.n570 185
R957 VCC.n566 VCC.n33 185
R958 VCC.n565 VCC.n564 185
R959 VCC.n562 VCC.n412 185
R960 VCC.n560 VCC.n559 185
R961 VCC.n558 VCC.n413 185
R962 VCC.n557 VCC.n556 185
R963 VCC.n554 VCC.n414 185
R964 VCC.n552 VCC.n551 185
R965 VCC.n550 VCC.n415 185
R966 VCC.n549 VCC.n548 185
R967 VCC.n546 VCC.n416 185
R968 VCC.n544 VCC.n543 185
R969 VCC.n542 VCC.n417 185
R970 VCC.n541 VCC.n540 185
R971 VCC.n538 VCC.n418 185
R972 VCC.n536 VCC.n535 185
R973 VCC.n534 VCC.n419 185
R974 VCC.n533 VCC.n532 185
R975 VCC.n530 VCC.n420 185
R976 VCC.n528 VCC.n527 185
R977 VCC.n526 VCC.n421 185
R978 VCC.n525 VCC.n524 185
R979 VCC.n522 VCC.n422 185
R980 VCC.n520 VCC.n519 185
R981 VCC.n518 VCC.n423 185
R982 VCC.n517 VCC.n516 185
R983 VCC.n514 VCC.n424 185
R984 VCC.n512 VCC.n511 185
R985 VCC.n510 VCC.n425 185
R986 VCC.n509 VCC.n508 185
R987 VCC.n506 VCC.n426 185
R988 VCC.n504 VCC.n503 185
R989 VCC.n502 VCC.n427 185
R990 VCC.n501 VCC.n500 185
R991 VCC.n498 VCC.n428 185
R992 VCC.n496 VCC.n495 185
R993 VCC.n494 VCC.n429 185
R994 VCC.n493 VCC.n492 185
R995 VCC.n490 VCC.n430 185
R996 VCC.n488 VCC.n487 185
R997 VCC.n486 VCC.n431 185
R998 VCC.n485 VCC.n484 185
R999 VCC.n482 VCC.n432 185
R1000 VCC.n480 VCC.n479 185
R1001 VCC.n478 VCC.n433 185
R1002 VCC.n477 VCC.n476 185
R1003 VCC.n474 VCC.n434 185
R1004 VCC.n472 VCC.n471 185
R1005 VCC.n470 VCC.n435 185
R1006 VCC.n469 VCC.n468 185
R1007 VCC.n466 VCC.n436 185
R1008 VCC.n464 VCC.n463 185
R1009 VCC.n462 VCC.n437 185
R1010 VCC.n461 VCC.n460 185
R1011 VCC.n458 VCC.n438 185
R1012 VCC.n456 VCC.n455 185
R1013 VCC.n454 VCC.n439 185
R1014 VCC.n453 VCC.n452 185
R1015 VCC.n450 VCC.n440 185