.SUBCKT six_stage_conv VOUT SEL_H[5] SEL_H[4] SEL_H[3] SEL_H[2]
+ SEL_H[1] SEL_H[0] SEL_L[5] SEL_L[4] SEL_L[3] SEL_L[2] SEL_L[1]
+ SEL_L[0] clk0 clk0b clk1 clk1b VPWR VGND
Xgen_stage[0].gen_cap[0].u0_DCDC_CAP_UNIT y0_bot[0] y0_top[0] DCDC_CAP_UNIT
Xgen_stage[0].gen_cap[0].u1_DCDC_CAP_UNIT y1_bot[0] y1_top[0] DCDC_CAP_UNIT
Xgen_stage[0].gen_cap[10].u0_DCDC_CAP_UNIT y0_bot[0] y0_top[0] DCDC_CAP_UNIT
Xgen_stage[0].gen_cap[10].u1_DCDC_CAP_UNIT y1_bot[0] y1_top[0] DCDC_CAP_UNIT
Xgen_stage[0].gen_cap[11].u0_DCDC_CAP_UNIT y0_bot[0] y0_top[0] DCDC_CAP_UNIT
Xgen_stage[0].gen_cap[11].u1_DCDC_CAP_UNIT y1_bot[0] y1_top[0] DCDC_CAP_UNIT
Xgen_stage[0].gen_cap[12].u0_DCDC_CAP_UNIT y0_bot[0] y0_top[0] DCDC_CAP_UNIT
Xgen_stage[0].gen_cap[12].u1_DCDC_CAP_UNIT y1_bot[0] y1_top[0] DCDC_CAP_UNIT
Xgen_stage[0].gen_cap[13].u0_DCDC_CAP_UNIT y0_bot[0] y0_top[0] DCDC_CAP_UNIT
Xgen_stage[0].gen_cap[13].u1_DCDC_CAP_UNIT y1_bot[0] y1_top[0] DCDC_CAP_UNIT
Xgen_stage[0].gen_cap[14].u0_DCDC_CAP_UNIT y0_bot[0] y0_top[0] DCDC_CAP_UNIT
Xgen_stage[0].gen_cap[14].u1_DCDC_CAP_UNIT y1_bot[0] y1_top[0] DCDC_CAP_UNIT
Xgen_stage[0].gen_cap[15].u0_DCDC_CAP_UNIT y0_bot[0] y0_top[0] DCDC_CAP_UNIT
Xgen_stage[0].gen_cap[15].u1_DCDC_CAP_UNIT y1_bot[0] y1_top[0] DCDC_CAP_UNIT
Xgen_stage[0].gen_cap[16].u0_DCDC_CAP_UNIT y0_bot[0] y0_top[0] DCDC_CAP_UNIT
Xgen_stage[0].gen_cap[16].u1_DCDC_CAP_UNIT y1_bot[0] y1_top[0] DCDC_CAP_UNIT
Xgen_stage[0].gen_cap[17].u0_DCDC_CAP_UNIT y0_bot[0] y0_top[0] DCDC_CAP_UNIT
Xgen_stage[0].gen_cap[17].u1_DCDC_CAP_UNIT y1_bot[0] y1_top[0] DCDC_CAP_UNIT
Xgen_stage[0].gen_cap[18].u0_DCDC_CAP_UNIT y0_bot[0] y0_top[0] DCDC_CAP_UNIT
Xgen_stage[0].gen_cap[18].u1_DCDC_CAP_UNIT y1_bot[0] y1_top[0] DCDC_CAP_UNIT
Xgen_stage[0].gen_cap[19].u0_DCDC_CAP_UNIT y0_bot[0] y0_top[0] DCDC_CAP_UNIT
Xgen_stage[0].gen_cap[19].u1_DCDC_CAP_UNIT y1_bot[0] y1_top[0] DCDC_CAP_UNIT
Xgen_stage[0].gen_cap[1].u0_DCDC_CAP_UNIT y0_bot[0] y0_top[0] DCDC_CAP_UNIT
Xgen_stage[0].gen_cap[1].u1_DCDC_CAP_UNIT y1_bot[0] y1_top[0] DCDC_CAP_UNIT
Xgen_stage[0].gen_cap[20].u0_DCDC_CAP_UNIT y0_bot[0] y0_top[0] DCDC_CAP_UNIT
Xgen_stage[0].gen_cap[20].u1_DCDC_CAP_UNIT y1_bot[0] y1_top[0] DCDC_CAP_UNIT
Xgen_stage[0].gen_cap[21].u0_DCDC_CAP_UNIT y0_bot[0] y0_top[0] DCDC_CAP_UNIT
Xgen_stage[0].gen_cap[21].u1_DCDC_CAP_UNIT y1_bot[0] y1_top[0] DCDC_CAP_UNIT
Xgen_stage[0].gen_cap[22].u0_DCDC_CAP_UNIT y0_bot[0] y0_top[0] DCDC_CAP_UNIT
Xgen_stage[0].gen_cap[22].u1_DCDC_CAP_UNIT y1_bot[0] y1_top[0] DCDC_CAP_UNIT
Xgen_stage[0].gen_cap[23].u0_DCDC_CAP_UNIT y0_bot[0] y0_top[0] DCDC_CAP_UNIT
Xgen_stage[0].gen_cap[23].u1_DCDC_CAP_UNIT y1_bot[0] y1_top[0] DCDC_CAP_UNIT
Xgen_stage[0].gen_cap[24].u0_DCDC_CAP_UNIT y0_bot[0] y0_top[0] DCDC_CAP_UNIT
Xgen_stage[0].gen_cap[24].u1_DCDC_CAP_UNIT y1_bot[0] y1_top[0] DCDC_CAP_UNIT
Xgen_stage[0].gen_cap[25].u0_DCDC_CAP_UNIT y0_bot[0] y0_top[0] DCDC_CAP_UNIT
Xgen_stage[0].gen_cap[25].u1_DCDC_CAP_UNIT y1_bot[0] y1_top[0] DCDC_CAP_UNIT
Xgen_stage[0].gen_cap[26].u0_DCDC_CAP_UNIT y0_bot[0] y0_top[0] DCDC_CAP_UNIT
Xgen_stage[0].gen_cap[26].u1_DCDC_CAP_UNIT y1_bot[0] y1_top[0] DCDC_CAP_UNIT
Xgen_stage[0].gen_cap[27].u0_DCDC_CAP_UNIT y0_bot[0] y0_top[0] DCDC_CAP_UNIT
Xgen_stage[0].gen_cap[27].u1_DCDC_CAP_UNIT y1_bot[0] y1_top[0] DCDC_CAP_UNIT
Xgen_stage[0].gen_cap[28].u0_DCDC_CAP_UNIT y0_bot[0] y0_top[0] DCDC_CAP_UNIT
Xgen_stage[0].gen_cap[28].u1_DCDC_CAP_UNIT y1_bot[0] y1_top[0] DCDC_CAP_UNIT
Xgen_stage[0].gen_cap[29].u0_DCDC_CAP_UNIT y0_bot[0] y0_top[0] DCDC_CAP_UNIT
Xgen_stage[0].gen_cap[29].u1_DCDC_CAP_UNIT y1_bot[0] y1_top[0] DCDC_CAP_UNIT
Xgen_stage[0].gen_cap[2].u0_DCDC_CAP_UNIT y0_bot[0] y0_top[0] DCDC_CAP_UNIT
Xgen_stage[0].gen_cap[2].u1_DCDC_CAP_UNIT y1_bot[0] y1_top[0] DCDC_CAP_UNIT
Xgen_stage[0].gen_cap[30].u0_DCDC_CAP_UNIT y0_bot[0] y0_top[0] DCDC_CAP_UNIT
Xgen_stage[0].gen_cap[30].u1_DCDC_CAP_UNIT y1_bot[0] y1_top[0] DCDC_CAP_UNIT
Xgen_stage[0].gen_cap[31].u0_DCDC_CAP_UNIT y0_bot[0] y0_top[0] DCDC_CAP_UNIT
Xgen_stage[0].gen_cap[31].u1_DCDC_CAP_UNIT y1_bot[0] y1_top[0] DCDC_CAP_UNIT
Xgen_stage[0].gen_cap[32].u0_DCDC_CAP_UNIT y0_bot[0] y0_top[0] DCDC_CAP_UNIT
Xgen_stage[0].gen_cap[32].u1_DCDC_CAP_UNIT y1_bot[0] y1_top[0] DCDC_CAP_UNIT
Xgen_stage[0].gen_cap[33].u0_DCDC_CAP_UNIT y0_bot[0] y0_top[0] DCDC_CAP_UNIT
Xgen_stage[0].gen_cap[33].u1_DCDC_CAP_UNIT y1_bot[0] y1_top[0] DCDC_CAP_UNIT
Xgen_stage[0].gen_cap[34].u0_DCDC_CAP_UNIT y0_bot[0] y0_top[0] DCDC_CAP_UNIT
Xgen_stage[0].gen_cap[34].u1_DCDC_CAP_UNIT y1_bot[0] y1_top[0] DCDC_CAP_UNIT
Xgen_stage[0].gen_cap[35].u0_DCDC_CAP_UNIT y0_bot[0] y0_top[0] DCDC_CAP_UNIT
Xgen_stage[0].gen_cap[35].u1_DCDC_CAP_UNIT y1_bot[0] y1_top[0] DCDC_CAP_UNIT
Xgen_stage[0].gen_cap[36].u0_DCDC_CAP_UNIT y0_bot[0] y0_top[0] DCDC_CAP_UNIT
Xgen_stage[0].gen_cap[36].u1_DCDC_CAP_UNIT y1_bot[0] y1_top[0] DCDC_CAP_UNIT
Xgen_stage[0].gen_cap[37].u0_DCDC_CAP_UNIT y0_bot[0] y0_top[0] DCDC_CAP_UNIT
Xgen_stage[0].gen_cap[37].u1_DCDC_CAP_UNIT y1_bot[0] y1_top[0] DCDC_CAP_UNIT
Xgen_stage[0].gen_cap[38].u0_DCDC_CAP_UNIT y0_bot[0] y0_top[0] DCDC_CAP_UNIT
Xgen_stage[0].gen_cap[38].u1_DCDC_CAP_UNIT y1_bot[0] y1_top[0] DCDC_CAP_UNIT
Xgen_stage[0].gen_cap[39].u0_DCDC_CAP_UNIT y0_bot[0] y0_top[0] DCDC_CAP_UNIT
Xgen_stage[0].gen_cap[39].u1_DCDC_CAP_UNIT y1_bot[0] y1_top[0] DCDC_CAP_UNIT
Xgen_stage[0].gen_cap[3].u0_DCDC_CAP_UNIT y0_bot[0] y0_top[0] DCDC_CAP_UNIT
Xgen_stage[0].gen_cap[3].u1_DCDC_CAP_UNIT y1_bot[0] y1_top[0] DCDC_CAP_UNIT
Xgen_stage[0].gen_cap[40].u0_DCDC_CAP_UNIT y0_bot[0] y0_top[0] DCDC_CAP_UNIT
Xgen_stage[0].gen_cap[40].u1_DCDC_CAP_UNIT y1_bot[0] y1_top[0] DCDC_CAP_UNIT
Xgen_stage[0].gen_cap[41].u0_DCDC_CAP_UNIT y0_bot[0] y0_top[0] DCDC_CAP_UNIT
Xgen_stage[0].gen_cap[41].u1_DCDC_CAP_UNIT y1_bot[0] y1_top[0] DCDC_CAP_UNIT
Xgen_stage[0].gen_cap[42].u0_DCDC_CAP_UNIT y0_bot[0] y0_top[0] DCDC_CAP_UNIT
Xgen_stage[0].gen_cap[42].u1_DCDC_CAP_UNIT y1_bot[0] y1_top[0] DCDC_CAP_UNIT
Xgen_stage[0].gen_cap[43].u0_DCDC_CAP_UNIT y0_bot[0] y0_top[0] DCDC_CAP_UNIT
Xgen_stage[0].gen_cap[43].u1_DCDC_CAP_UNIT y1_bot[0] y1_top[0] DCDC_CAP_UNIT
Xgen_stage[0].gen_cap[44].u0_DCDC_CAP_UNIT y0_bot[0] y0_top[0] DCDC_CAP_UNIT
Xgen_stage[0].gen_cap[44].u1_DCDC_CAP_UNIT y1_bot[0] y1_top[0] DCDC_CAP_UNIT
Xgen_stage[0].gen_cap[45].u0_DCDC_CAP_UNIT y0_bot[0] y0_top[0] DCDC_CAP_UNIT
Xgen_stage[0].gen_cap[45].u1_DCDC_CAP_UNIT y1_bot[0] y1_top[0] DCDC_CAP_UNIT
Xgen_stage[0].gen_cap[46].u0_DCDC_CAP_UNIT y0_bot[0] y0_top[0] DCDC_CAP_UNIT
Xgen_stage[0].gen_cap[46].u1_DCDC_CAP_UNIT y1_bot[0] y1_top[0] DCDC_CAP_UNIT
Xgen_stage[0].gen_cap[47].u0_DCDC_CAP_UNIT y0_bot[0] y0_top[0] DCDC_CAP_UNIT
Xgen_stage[0].gen_cap[47].u1_DCDC_CAP_UNIT y1_bot[0] y1_top[0] DCDC_CAP_UNIT
Xgen_stage[0].gen_cap[48].u0_DCDC_CAP_UNIT y0_bot[0] y0_top[0] DCDC_CAP_UNIT
Xgen_stage[0].gen_cap[48].u1_DCDC_CAP_UNIT y1_bot[0] y1_top[0] DCDC_CAP_UNIT
Xgen_stage[0].gen_cap[49].u0_DCDC_CAP_UNIT y0_bot[0] y0_top[0] DCDC_CAP_UNIT
Xgen_stage[0].gen_cap[49].u1_DCDC_CAP_UNIT y1_bot[0] y1_top[0] DCDC_CAP_UNIT
Xgen_stage[0].gen_cap[4].u0_DCDC_CAP_UNIT y0_bot[0] y0_top[0] DCDC_CAP_UNIT
Xgen_stage[0].gen_cap[4].u1_DCDC_CAP_UNIT y1_bot[0] y1_top[0] DCDC_CAP_UNIT
Xgen_stage[0].gen_cap[50].u0_DCDC_CAP_UNIT y0_bot[0] y0_top[0] DCDC_CAP_UNIT
Xgen_stage[0].gen_cap[50].u1_DCDC_CAP_UNIT y1_bot[0] y1_top[0] DCDC_CAP_UNIT
Xgen_stage[0].gen_cap[51].u0_DCDC_CAP_UNIT y0_bot[0] y0_top[0] DCDC_CAP_UNIT
Xgen_stage[0].gen_cap[51].u1_DCDC_CAP_UNIT y1_bot[0] y1_top[0] DCDC_CAP_UNIT
Xgen_stage[0].gen_cap[52].u0_DCDC_CAP_UNIT y0_bot[0] y0_top[0] DCDC_CAP_UNIT
Xgen_stage[0].gen_cap[52].u1_DCDC_CAP_UNIT y1_bot[0] y1_top[0] DCDC_CAP_UNIT
Xgen_stage[0].gen_cap[53].u0_DCDC_CAP_UNIT y0_bot[0] y0_top[0] DCDC_CAP_UNIT
Xgen_stage[0].gen_cap[53].u1_DCDC_CAP_UNIT y1_bot[0] y1_top[0] DCDC_CAP_UNIT
Xgen_stage[0].gen_cap[54].u0_DCDC_CAP_UNIT y0_bot[0] y0_top[0] DCDC_CAP_UNIT
Xgen_stage[0].gen_cap[54].u1_DCDC_CAP_UNIT y1_bot[0] y1_top[0] DCDC_CAP_UNIT
Xgen_stage[0].gen_cap[55].u0_DCDC_CAP_UNIT y0_bot[0] y0_top[0] DCDC_CAP_UNIT
Xgen_stage[0].gen_cap[55].u1_DCDC_CAP_UNIT y1_bot[0] y1_top[0] DCDC_CAP_UNIT
Xgen_stage[0].gen_cap[5].u0_DCDC_CAP_UNIT y0_bot[0] y0_top[0] DCDC_CAP_UNIT
Xgen_stage[0].gen_cap[5].u1_DCDC_CAP_UNIT y1_bot[0] y1_top[0] DCDC_CAP_UNIT
Xgen_stage[0].gen_cap[6].u0_DCDC_CAP_UNIT y0_bot[0] y0_top[0] DCDC_CAP_UNIT
Xgen_stage[0].gen_cap[6].u1_DCDC_CAP_UNIT y1_bot[0] y1_top[0] DCDC_CAP_UNIT
Xgen_stage[0].gen_cap[7].u0_DCDC_CAP_UNIT y0_bot[0] y0_top[0] DCDC_CAP_UNIT
Xgen_stage[0].gen_cap[7].u1_DCDC_CAP_UNIT y1_bot[0] y1_top[0] DCDC_CAP_UNIT
Xgen_stage[0].gen_cap[8].u0_DCDC_CAP_UNIT y0_bot[0] y0_top[0] DCDC_CAP_UNIT
Xgen_stage[0].gen_cap[8].u1_DCDC_CAP_UNIT y1_bot[0] y1_top[0] DCDC_CAP_UNIT
Xgen_stage[0].gen_cap[9].u0_DCDC_CAP_UNIT y0_bot[0] y0_top[0] DCDC_CAP_UNIT
Xgen_stage[0].gen_cap[9].u1_DCDC_CAP_UNIT y1_bot[0] y1_top[0] DCDC_CAP_UNIT
Xgen_stage[0].gen_conv[0].u_DCDC_CONV2TO1 VGND VPWR clk0 clk0b clk1
+ clk1b y0_top[0] y1_top[0] y0_bot[0] y1_bot[0]
+ gen_stage[0].genblk1.u_DCDC_POWMUX.vhigh
+ gen_stage[1].genblk1.u_DCDC_POWMUX.vin
+ gen_stage[0].genblk1.u_DCDC_POWMUX.vlow DCDC_CONV2TO1
Xgen_stage[0].gen_conv[1].u_DCDC_CONV2TO1 VGND VPWR clk0 clk0b clk1
+ clk1b y0_top[0] y1_top[0] y0_bot[0] y1_bot[0]
+ gen_stage[0].genblk1.u_DCDC_POWMUX.vhigh
+ gen_stage[1].genblk1.u_DCDC_POWMUX.vin
+ gen_stage[0].genblk1.u_DCDC_POWMUX.vlow DCDC_CONV2TO1
Xgen_stage[0].gen_conv[2].u_DCDC_CONV2TO1 VGND VPWR clk0 clk0b clk1
+ clk1b y0_top[0] y1_top[0] y0_bot[0] y1_bot[0]
+ gen_stage[0].genblk1.u_DCDC_POWMUX.vhigh
+ gen_stage[1].genblk1.u_DCDC_POWMUX.vin
+ gen_stage[0].genblk1.u_DCDC_POWMUX.vlow DCDC_CONV2TO1
Xgen_stage[0].gen_conv[3].u_DCDC_CONV2TO1 VGND VPWR clk0 clk0b clk1
+ clk1b y0_top[0] y1_top[0] y0_bot[0] y1_bot[0]
+ gen_stage[0].genblk1.u_DCDC_POWMUX.vhigh
+ gen_stage[1].genblk1.u_DCDC_POWMUX.vin
+ gen_stage[0].genblk1.u_DCDC_POWMUX.vlow DCDC_CONV2TO1
Xgen_stage[0].gen_conv[4].u_DCDC_CONV2TO1 VGND VPWR clk0 clk0b clk1
+ clk1b y0_top[0] y1_top[0] y0_bot[0] y1_bot[0]
+ gen_stage[0].genblk1.u_DCDC_POWMUX.vhigh
+ gen_stage[1].genblk1.u_DCDC_POWMUX.vin
+ gen_stage[0].genblk1.u_DCDC_POWMUX.vlow DCDC_CONV2TO1
Xgen_stage[0].gen_conv[5].u_DCDC_CONV2TO1 VGND VPWR clk0 clk0b clk1
+ clk1b y0_top[0] y1_top[0] y0_bot[0] y1_bot[0]
+ gen_stage[0].genblk1.u_DCDC_POWMUX.vhigh
+ gen_stage[1].genblk1.u_DCDC_POWMUX.vin
+ gen_stage[0].genblk1.u_DCDC_POWMUX.vlow DCDC_CONV2TO1
Xgen_stage[0].gen_conv[6].u_DCDC_CONV2TO1 VGND VPWR clk0 clk0b clk1
+ clk1b y0_top[0] y1_top[0] y0_bot[0] y1_bot[0]
+ gen_stage[0].genblk1.u_DCDC_POWMUX.vhigh
+ gen_stage[1].genblk1.u_DCDC_POWMUX.vin
+ gen_stage[0].genblk1.u_DCDC_POWMUX.vlow DCDC_CONV2TO1
Xgen_stage[0].gen_conv[7].u_DCDC_CONV2TO1 VGND VPWR clk0 clk0b clk1
+ clk1b y0_top[0] y1_top[0] y0_bot[0] y1_bot[0]
+ gen_stage[0].genblk1.u_DCDC_POWMUX.vhigh
+ gen_stage[1].genblk1.u_DCDC_POWMUX.vin
+ gen_stage[0].genblk1.u_DCDC_POWMUX.vlow DCDC_CONV2TO1
Xgen_stage[0].genblk1.u_DCDC_POWMUX.gen_powmux[0].powmux VGND VPWR SEL_H[0]
+ SEL_L[0] VGND gen_stage[0].genblk1.u_DCDC_POWMUX.vhigh
+ gen_stage[0].genblk1.u_DCDC_POWMUX.vlow DCDC_MUX
Xgen_stage[1].gen_cap[0].u0_DCDC_CAP_UNIT y0_bot[1] y0_top[1] DCDC_CAP_UNIT
Xgen_stage[1].gen_cap[0].u1_DCDC_CAP_UNIT y1_bot[1] y1_top[1] DCDC_CAP_UNIT
Xgen_stage[1].gen_cap[100].u0_DCDC_CAP_UNIT y0_bot[1] y0_top[1] DCDC_CAP_UNIT
Xgen_stage[1].gen_cap[100].u1_DCDC_CAP_UNIT y1_bot[1] y1_top[1] DCDC_CAP_UNIT
Xgen_stage[1].gen_cap[101].u0_DCDC_CAP_UNIT y0_bot[1] y0_top[1] DCDC_CAP_UNIT
Xgen_stage[1].gen_cap[101].u1_DCDC_CAP_UNIT y1_bot[1] y1_top[1] DCDC_CAP_UNIT
Xgen_stage[1].gen_cap[102].u0_DCDC_CAP_UNIT y0_bot[1] y0_top[1] DCDC_CAP_UNIT
Xgen_stage[1].gen_cap[102].u1_DCDC_CAP_UNIT y1_bot[1] y1_top[1] DCDC_CAP_UNIT
Xgen_stage[1].gen_cap[103].u0_DCDC_CAP_UNIT y0_bot[1] y0_top[1] DCDC_CAP_UNIT
Xgen_stage[1].gen_cap[103].u1_DCDC_CAP_UNIT y1_bot[1] y1_top[1] DCDC_CAP_UNIT
Xgen_stage[1].gen_cap[104].u0_DCDC_CAP_UNIT y0_bot[1] y0_top[1] DCDC_CAP_UNIT
Xgen_stage[1].gen_cap[104].u1_DCDC_CAP_UNIT y1_bot[1] y1_top[1] DCDC_CAP_UNIT
Xgen_stage[1].gen_cap[105].u0_DCDC_CAP_UNIT y0_bot[1] y0_top[1] DCDC_CAP_UNIT
Xgen_stage[1].gen_cap[105].u1_DCDC_CAP_UNIT y1_bot[1] y1_top[1] DCDC_CAP_UNIT
Xgen_stage[1].gen_cap[106].u0_DCDC_CAP_UNIT y0_bot[1] y0_top[1] DCDC_CAP_UNIT
Xgen_stage[1].gen_cap[106].u1_DCDC_CAP_UNIT y1_bot[1] y1_top[1] DCDC_CAP_UNIT
Xgen_stage[1].gen_cap[107].u0_DCDC_CAP_UNIT y0_bot[1] y0_top[1] DCDC_CAP_UNIT
Xgen_stage[1].gen_cap[107].u1_DCDC_CAP_UNIT y1_bot[1] y1_top[1] DCDC_CAP_UNIT
Xgen_stage[1].gen_cap[108].u0_DCDC_CAP_UNIT y0_bot[1] y0_top[1] DCDC_CAP_UNIT
Xgen_stage[1].gen_cap[108].u1_DCDC_CAP_UNIT y1_bot[1] y1_top[1] DCDC_CAP_UNIT
Xgen_stage[1].gen_cap[109].u0_DCDC_CAP_UNIT y0_bot[1] y0_top[1] DCDC_CAP_UNIT
Xgen_stage[1].gen_cap[109].u1_DCDC_CAP_UNIT y1_bot[1] y1_top[1] DCDC_CAP_UNIT
Xgen_stage[1].gen_cap[10].u0_DCDC_CAP_UNIT y0_bot[1] y0_top[1] DCDC_CAP_UNIT
Xgen_stage[1].gen_cap[10].u1_DCDC_CAP_UNIT y1_bot[1] y1_top[1] DCDC_CAP_UNIT
Xgen_stage[1].gen_cap[110].u0_DCDC_CAP_UNIT y0_bot[1] y0_top[1] DCDC_CAP_UNIT
Xgen_stage[1].gen_cap[110].u1_DCDC_CAP_UNIT y1_bot[1] y1_top[1] DCDC_CAP_UNIT
Xgen_stage[1].gen_cap[111].u0_DCDC_CAP_UNIT y0_bot[1] y0_top[1] DCDC_CAP_UNIT
Xgen_stage[1].gen_cap[111].u1_DCDC_CAP_UNIT y1_bot[1] y1_top[1] DCDC_CAP_UNIT
Xgen_stage[1].gen_cap[112].u0_DCDC_CAP_UNIT y0_bot[1] y0_top[1] DCDC_CAP_UNIT
Xgen_stage[1].gen_cap[112].u1_DCDC_CAP_UNIT y1_bot[1] y1_top[1] DCDC_CAP_UNIT
Xgen_stage[1].gen_cap[11].u0_DCDC_CAP_UNIT y0_bot[1] y0_top[1] DCDC_CAP_UNIT
Xgen_stage[1].gen_cap[11].u1_DCDC_CAP_UNIT y1_bot[1] y1_top[1] DCDC_CAP_UNIT
Xgen_stage[1].gen_cap[12].u0_DCDC_CAP_UNIT y0_bot[1] y0_top[1] DCDC_CAP_UNIT
Xgen_stage[1].gen_cap[12].u1_DCDC_CAP_UNIT y1_bot[1] y1_top[1] DCDC_CAP_UNIT
Xgen_stage[1].gen_cap[13].u0_DCDC_CAP_UNIT y0_bot[1] y0_top[1] DCDC_CAP_UNIT
Xgen_stage[1].gen_cap[13].u1_DCDC_CAP_UNIT y1_bot[1] y1_top[1] DCDC_CAP_UNIT
Xgen_stage[1].gen_cap[14].u0_DCDC_CAP_UNIT y0_bot[1] y0_top[1] DCDC_CAP_UNIT
Xgen_stage[1].gen_cap[14].u1_DCDC_CAP_UNIT y1_bot[1] y1_top[1] DCDC_CAP_UNIT
Xgen_stage[1].gen_cap[15].u0_DCDC_CAP_UNIT y0_bot[1] y0_top[1] DCDC_CAP_UNIT
Xgen_stage[1].gen_cap[15].u1_DCDC_CAP_UNIT y1_bot[1] y1_top[1] DCDC_CAP_UNIT
Xgen_stage[1].gen_cap[16].u0_DCDC_CAP_UNIT y0_bot[1] y0_top[1] DCDC_CAP_UNIT
Xgen_stage[1].gen_cap[16].u1_DCDC_CAP_UNIT y1_bot[1] y1_top[1] DCDC_CAP_UNIT
Xgen_stage[1].gen_cap[17].u0_DCDC_CAP_UNIT y0_bot[1] y0_top[1] DCDC_CAP_UNIT
Xgen_stage[1].gen_cap[17].u1_DCDC_CAP_UNIT y1_bot[1] y1_top[1] DCDC_CAP_UNIT
Xgen_stage[1].gen_cap[18].u0_DCDC_CAP_UNIT y0_bot[1] y0_top[1] DCDC_CAP_UNIT
Xgen_stage[1].gen_cap[18].u1_DCDC_CAP_UNIT y1_bot[1] y1_top[1] DCDC_CAP_UNIT
Xgen_stage[1].gen_cap[19].u0_DCDC_CAP_UNIT y0_bot[1] y0_top[1] DCDC_CAP_UNIT
Xgen_stage[1].gen_cap[19].u1_DCDC_CAP_UNIT y1_bot[1] y1_top[1] DCDC_CAP_UNIT
Xgen_stage[1].gen_cap[1].u0_DCDC_CAP_UNIT y0_bot[1] y0_top[1] DCDC_CAP_UNIT
Xgen_stage[1].gen_cap[1].u1_DCDC_CAP_UNIT y1_bot[1] y1_top[1] DCDC_CAP_UNIT
Xgen_stage[1].gen_cap[20].u0_DCDC_CAP_UNIT y0_bot[1] y0_top[1] DCDC_CAP_UNIT
Xgen_stage[1].gen_cap[20].u1_DCDC_CAP_UNIT y1_bot[1] y1_top[1] DCDC_CAP_UNIT
Xgen_stage[1].gen_cap[21].u0_DCDC_CAP_UNIT y0_bot[1] y0_top[1] DCDC_CAP_UNIT
Xgen_stage[1].gen_cap[21].u1_DCDC_CAP_UNIT y1_bot[1] y1_top[1] DCDC_CAP_UNIT
Xgen_stage[1].gen_cap[22].u0_DCDC_CAP_UNIT y0_bot[1] y0_top[1] DCDC_CAP_UNIT
Xgen_stage[1].gen_cap[22].u1_DCDC_CAP_UNIT y1_bot[1] y1_top[1] DCDC_CAP_UNIT
Xgen_stage[1].gen_cap[23].u0_DCDC_CAP_UNIT y0_bot[1] y0_top[1] DCDC_CAP_UNIT
Xgen_stage[1].gen_cap[23].u1_DCDC_CAP_UNIT y1_bot[1] y1_top[1] DCDC_CAP_UNIT
Xgen_stage[1].gen_cap[24].u0_DCDC_CAP_UNIT y0_bot[1] y0_top[1] DCDC_CAP_UNIT
Xgen_stage[1].gen_cap[24].u1_DCDC_CAP_UNIT y1_bot[1] y1_top[1] DCDC_CAP_UNIT
Xgen_stage[1].gen_cap[25].u0_DCDC_CAP_UNIT y0_bot[1] y0_top[1] DCDC_CAP_UNIT
Xgen_stage[1].gen_cap[25].u1_DCDC_CAP_UNIT y1_bot[1] y1_top[1] DCDC_CAP_UNIT
Xgen_stage[1].gen_cap[26].u0_DCDC_CAP_UNIT y0_bot[1] y0_top[1] DCDC_CAP_UNIT
Xgen_stage[1].gen_cap[26].u1_DCDC_CAP_UNIT y1_bot[1] y1_top[1] DCDC_CAP_UNIT
Xgen_stage[1].gen_cap[27].u0_DCDC_CAP_UNIT y0_bot[1] y0_top[1] DCDC_CAP_UNIT
Xgen_stage[1].gen_cap[27].u1_DCDC_CAP_UNIT y1_bot[1] y1_top[1] DCDC_CAP_UNIT
Xgen_stage[1].gen_cap[28].u0_DCDC_CAP_UNIT y0_bot[1] y0_top[1] DCDC_CAP_UNIT
Xgen_stage[1].gen_cap[28].u1_DCDC_CAP_UNIT y1_bot[1] y1_top[1] DCDC_CAP_UNIT
Xgen_stage[1].gen_cap[29].u0_DCDC_CAP_UNIT y0_bot[1] y0_top[1] DCDC_CAP_UNIT
Xgen_stage[1].gen_cap[29].u1_DCDC_CAP_UNIT y1_bot[1] y1_top[1] DCDC_CAP_UNIT
Xgen_stage[1].gen_cap[2].u0_DCDC_CAP_UNIT y0_bot[1] y0_top[1] DCDC_CAP_UNIT
Xgen_stage[1].gen_cap[2].u1_DCDC_CAP_UNIT y1_bot[1] y1_top[1] DCDC_CAP_UNIT
Xgen_stage[1].gen_cap[30].u0_DCDC_CAP_UNIT y0_bot[1] y0_top[1] DCDC_CAP_UNIT
Xgen_stage[1].gen_cap[30].u1_DCDC_CAP_UNIT y1_bot[1] y1_top[1] DCDC_CAP_UNIT
Xgen_stage[1].gen_cap[31].u0_DCDC_CAP_UNIT y0_bot[1] y0_top[1] DCDC_CAP_UNIT
Xgen_stage[1].gen_cap[31].u1_DCDC_CAP_UNIT y1_bot[1] y1_top[1] DCDC_CAP_UNIT
Xgen_stage[1].gen_cap[32].u0_DCDC_CAP_UNIT y0_bot[1] y0_top[1] DCDC_CAP_UNIT
Xgen_stage[1].gen_cap[32].u1_DCDC_CAP_UNIT y1_bot[1] y1_top[1] DCDC_CAP_UNIT
Xgen_stage[1].gen_cap[33].u0_DCDC_CAP_UNIT y0_bot[1] y0_top[1] DCDC_CAP_UNIT
Xgen_stage[1].gen_cap[33].u1_DCDC_CAP_UNIT y1_bot[1] y1_top[1] DCDC_CAP_UNIT
Xgen_stage[1].gen_cap[34].u0_DCDC_CAP_UNIT y0_bot[1] y0_top[1] DCDC_CAP_UNIT
Xgen_stage[1].gen_cap[34].u1_DCDC_CAP_UNIT y1_bot[1] y1_top[1] DCDC_CAP_UNIT
Xgen_stage[1].gen_cap[35].u0_DCDC_CAP_UNIT y0_bot[1] y0_top[1] DCDC_CAP_UNIT
Xgen_stage[1].gen_cap[35].u1_DCDC_CAP_UNIT y1_bot[1] y1_top[1] DCDC_CAP_UNIT
Xgen_stage[1].gen_cap[36].u0_DCDC_CAP_UNIT y0_bot[1] y0_top[1] DCDC_CAP_UNIT
Xgen_stage[1].gen_cap[36].u1_DCDC_CAP_UNIT y1_bot[1] y1_top[1] DCDC_CAP_UNIT
Xgen_stage[1].gen_cap[37].u0_DCDC_CAP_UNIT y0_bot[1] y0_top[1] DCDC_CAP_UNIT
Xgen_stage[1].gen_cap[37].u1_DCDC_CAP_UNIT y1_bot[1] y1_top[1] DCDC_CAP_UNIT
Xgen_stage[1].gen_cap[38].u0_DCDC_CAP_UNIT y0_bot[1] y0_top[1] DCDC_CAP_UNIT
Xgen_stage[1].gen_cap[38].u1_DCDC_CAP_UNIT y1_bot[1] y1_top[1] DCDC_CAP_UNIT
Xgen_stage[1].gen_cap[39].u0_DCDC_CAP_UNIT y0_bot[1] y0_top[1] DCDC_CAP_UNIT
Xgen_stage[1].gen_cap[39].u1_DCDC_CAP_UNIT y1_bot[1] y1_top[1] DCDC_CAP_UNIT
Xgen_stage[1].gen_cap[3].u0_DCDC_CAP_UNIT y0_bot[1] y0_top[1] DCDC_CAP_UNIT
Xgen_stage[1].gen_cap[3].u1_DCDC_CAP_UNIT y1_bot[1] y1_top[1] DCDC_CAP_UNIT
Xgen_stage[1].gen_cap[40].u0_DCDC_CAP_UNIT y0_bot[1] y0_top[1] DCDC_CAP_UNIT
Xgen_stage[1].gen_cap[40].u1_DCDC_CAP_UNIT y1_bot[1] y1_top[1] DCDC_CAP_UNIT
Xgen_stage[1].gen_cap[41].u0_DCDC_CAP_UNIT y0_bot[1] y0_top[1] DCDC_CAP_UNIT
Xgen_stage[1].gen_cap[41].u1_DCDC_CAP_UNIT y1_bot[1] y1_top[1] DCDC_CAP_UNIT
Xgen_stage[1].gen_cap[42].u0_DCDC_CAP_UNIT y0_bot[1] y0_top[1] DCDC_CAP_UNIT
Xgen_stage[1].gen_cap[42].u1_DCDC_CAP_UNIT y1_bot[1] y1_top[1] DCDC_CAP_UNIT
Xgen_stage[1].gen_cap[43].u0_DCDC_CAP_UNIT y0_bot[1] y0_top[1] DCDC_CAP_UNIT
Xgen_stage[1].gen_cap[43].u1_DCDC_CAP_UNIT y1_bot[1] y1_top[1] DCDC_CAP_UNIT
Xgen_stage[1].gen_cap[44].u0_DCDC_CAP_UNIT y0_bot[1] y0_top[1] DCDC_CAP_UNIT
Xgen_stage[1].gen_cap[44].u1_DCDC_CAP_UNIT y1_bot[1] y1_top[1] DCDC_CAP_UNIT
Xgen_stage[1].gen_cap[45].u0_DCDC_CAP_UNIT y0_bot[1] y0_top[1] DCDC_CAP_UNIT
Xgen_stage[1].gen_cap[45].u1_DCDC_CAP_UNIT y1_bot[1] y1_top[1] DCDC_CAP_UNIT
Xgen_stage[1].gen_cap[46].u0_DCDC_CAP_UNIT y0_bot[1] y0_top[1] DCDC_CAP_UNIT
Xgen_stage[1].gen_cap[46].u1_DCDC_CAP_UNIT y1_bot[1] y1_top[1] DCDC_CAP_UNIT
Xgen_stage[1].gen_cap[47].u0_DCDC_CAP_UNIT y0_bot[1] y0_top[1] DCDC_CAP_UNIT
Xgen_stage[1].gen_cap[47].u1_DCDC_CAP_UNIT y1_bot[1] y1_top[1] DCDC_CAP_UNIT
Xgen_stage[1].gen_cap[48].u0_DCDC_CAP_UNIT y0_bot[1] y0_top[1] DCDC_CAP_UNIT
Xgen_stage[1].gen_cap[48].u1_DCDC_CAP_UNIT y1_bot[1] y1_top[1] DCDC_CAP_UNIT
Xgen_stage[1].gen_cap[49].u0_DCDC_CAP_UNIT y0_bot[1] y0_top[1] DCDC_CAP_UNIT
Xgen_stage[1].gen_cap[49].u1_DCDC_CAP_UNIT y1_bot[1] y1_top[1] DCDC_CAP_UNIT
Xgen_stage[1].gen_cap[4].u0_DCDC_CAP_UNIT y0_bot[1] y0_top[1] DCDC_CAP_UNIT
Xgen_stage[1].gen_cap[4].u1_DCDC_CAP_UNIT y1_bot[1] y1_top[1] DCDC_CAP_UNIT
Xgen_stage[1].gen_cap[50].u0_DCDC_CAP_UNIT y0_bot[1] y0_top[1] DCDC_CAP_UNIT
Xgen_stage[1].gen_cap[50].u1_DCDC_CAP_UNIT y1_bot[1] y1_top[1] DCDC_CAP_UNIT
Xgen_stage[1].gen_cap[51].u0_DCDC_CAP_UNIT y0_bot[1] y0_top[1] DCDC_CAP_UNIT
Xgen_stage[1].gen_cap[51].u1_DCDC_CAP_UNIT y1_bot[1] y1_top[1] DCDC_CAP_UNIT
Xgen_stage[1].gen_cap[52].u0_DCDC_CAP_UNIT y0_bot[1] y0_top[1] DCDC_CAP_UNIT
Xgen_stage[1].gen_cap[52].u1_DCDC_CAP_UNIT y1_bot[1] y1_top[1] DCDC_CAP_UNIT
Xgen_stage[1].gen_cap[53].u0_DCDC_CAP_UNIT y0_bot[1] y0_top[1] DCDC_CAP_UNIT
Xgen_stage[1].gen_cap[53].u1_DCDC_CAP_UNIT y1_bot[1] y1_top[1] DCDC_CAP_UNIT
Xgen_stage[1].gen_cap[54].u0_DCDC_CAP_UNIT y0_bot[1] y0_top[1] DCDC_CAP_UNIT
Xgen_stage[1].gen_cap[54].u1_DCDC_CAP_UNIT y1_bot[1] y1_top[1] DCDC_CAP_UNIT
Xgen_stage[1].gen_cap[55].u0_DCDC_CAP_UNIT y0_bot[1] y0_top[1] DCDC_CAP_UNIT
Xgen_stage[1].gen_cap[55].u1_DCDC_CAP_UNIT y1_bot[1] y1_top[1] DCDC_CAP_UNIT
Xgen_stage[1].gen_cap[56].u0_DCDC_CAP_UNIT y0_bot[1] y0_top[1] DCDC_CAP_UNIT
Xgen_stage[1].gen_cap[56].u1_DCDC_CAP_UNIT y1_bot[1] y1_top[1] DCDC_CAP_UNIT
Xgen_stage[1].gen_cap[57].u0_DCDC_CAP_UNIT y0_bot[1] y0_top[1] DCDC_CAP_UNIT
Xgen_stage[1].gen_cap[57].u1_DCDC_CAP_UNIT y1_bot[1] y1_top[1] DCDC_CAP_UNIT
Xgen_stage[1].gen_cap[58].u0_DCDC_CAP_UNIT y0_bot[1] y0_top[1] DCDC_CAP_UNIT
Xgen_stage[1].gen_cap[58].u1_DCDC_CAP_UNIT y1_bot[1] y1_top[1] DCDC_CAP_UNIT
Xgen_stage[1].gen_cap[59].u0_DCDC_CAP_UNIT y0_bot[1] y0_top[1] DCDC_CAP_UNIT
Xgen_stage[1].gen_cap[59].u1_DCDC_CAP_UNIT y1_bot[1] y1_top[1] DCDC_CAP_UNIT
Xgen_stage[1].gen_cap[5].u0_DCDC_CAP_UNIT y0_bot[1] y0_top[1] DCDC_CAP_UNIT
Xgen_stage[1].gen_cap[5].u1_DCDC_CAP_UNIT y1_bot[1] y1_top[1] DCDC_CAP_UNIT
Xgen_stage[1].gen_cap[60].u0_DCDC_CAP_UNIT y0_bot[1] y0_top[1] DCDC_CAP_UNIT
Xgen_stage[1].gen_cap[60].u1_DCDC_CAP_UNIT y1_bot[1] y1_top[1] DCDC_CAP_UNIT
Xgen_stage[1].gen_cap[61].u0_DCDC_CAP_UNIT y0_bot[1] y0_top[1] DCDC_CAP_UNIT
Xgen_stage[1].gen_cap[61].u1_DCDC_CAP_UNIT y1_bot[1] y1_top[1] DCDC_CAP_UNIT
Xgen_stage[1].gen_cap[62].u0_DCDC_CAP_UNIT y0_bot[1] y0_top[1] DCDC_CAP_UNIT
Xgen_stage[1].gen_cap[62].u1_DCDC_CAP_UNIT y1_bot[1] y1_top[1] DCDC_CAP_UNIT
Xgen_stage[1].gen_cap[63].u0_DCDC_CAP_UNIT y0_bot[1] y0_top[1] DCDC_CAP_UNIT
Xgen_stage[1].gen_cap[63].u1_DCDC_CAP_UNIT y1_bot[1] y1_top[1] DCDC_CAP_UNIT
Xgen_stage[1].gen_cap[64].u0_DCDC_CAP_UNIT y0_bot[1] y0_top[1] DCDC_CAP_UNIT
Xgen_stage[1].gen_cap[64].u1_DCDC_CAP_UNIT y1_bot[1] y1_top[1] DCDC_CAP_UNIT
Xgen_stage[1].gen_cap[65].u0_DCDC_CAP_UNIT y0_bot[1] y0_top[1] DCDC_CAP_UNIT
Xgen_stage[1].gen_cap[65].u1_DCDC_CAP_UNIT y1_bot[1] y1_top[1] DCDC_CAP_UNIT
Xgen_stage[1].gen_cap[66].u0_DCDC_CAP_UNIT y0_bot[1] y0_top[1] DCDC_CAP_UNIT
Xgen_stage[1].gen_cap[66].u1_DCDC_CAP_UNIT y1_bot[1] y1_top[1] DCDC_CAP_UNIT
Xgen_stage[1].gen_cap[67].u0_DCDC_CAP_UNIT y0_bot[1] y0_top[1] DCDC_CAP_UNIT
Xgen_stage[1].gen_cap[67].u1_DCDC_CAP_UNIT y1_bot[1] y1_top[1] DCDC_CAP_UNIT
Xgen_stage[1].gen_cap[68].u0_DCDC_CAP_UNIT y0_bot[1] y0_top[1] DCDC_CAP_UNIT
Xgen_stage[1].gen_cap[68].u1_DCDC_CAP_UNIT y1_bot[1] y1_top[1] DCDC_CAP_UNIT
Xgen_stage[1].gen_cap[69].u0_DCDC_CAP_UNIT y0_bot[1] y0_top[1] DCDC_CAP_UNIT
Xgen_stage[1].gen_cap[69].u1_DCDC_CAP_UNIT y1_bot[1] y1_top[1] DCDC_CAP_UNIT
Xgen_stage[1].gen_cap[6].u0_DCDC_CAP_UNIT y0_bot[1] y0_top[1] DCDC_CAP_UNIT
Xgen_stage[1].gen_cap[6].u1_DCDC_CAP_UNIT y1_bot[1] y1_top[1] DCDC_CAP_UNIT
Xgen_stage[1].gen_cap[70].u0_DCDC_CAP_UNIT y0_bot[1] y0_top[1] DCDC_CAP_UNIT
Xgen_stage[1].gen_cap[70].u1_DCDC_CAP_UNIT y1_bot[1] y1_top[1] DCDC_CAP_UNIT
Xgen_stage[1].gen_cap[71].u0_DCDC_CAP_UNIT y0_bot[1] y0_top[1] DCDC_CAP_UNIT
Xgen_stage[1].gen_cap[71].u1_DCDC_CAP_UNIT y1_bot[1] y1_top[1] DCDC_CAP_UNIT
Xgen_stage[1].gen_cap[72].u0_DCDC_CAP_UNIT y0_bot[1] y0_top[1] DCDC_CAP_UNIT
Xgen_stage[1].gen_cap[72].u1_DCDC_CAP_UNIT y1_bot[1] y1_top[1] DCDC_CAP_UNIT
Xgen_stage[1].gen_cap[73].u0_DCDC_CAP_UNIT y0_bot[1] y0_top[1] DCDC_CAP_UNIT
Xgen_stage[1].gen_cap[73].u1_DCDC_CAP_UNIT y1_bot[1] y1_top[1] DCDC_CAP_UNIT
Xgen_stage[1].gen_cap[74].u0_DCDC_CAP_UNIT y0_bot[1] y0_top[1] DCDC_CAP_UNIT
Xgen_stage[1].gen_cap[74].u1_DCDC_CAP_UNIT y1_bot[1] y1_top[1] DCDC_CAP_UNIT
Xgen_stage[1].gen_cap[75].u0_DCDC_CAP_UNIT y0_bot[1] y0_top[1] DCDC_CAP_UNIT
Xgen_stage[1].gen_cap[75].u1_DCDC_CAP_UNIT y1_bot[1] y1_top[1] DCDC_CAP_UNIT
Xgen_stage[1].gen_cap[76].u0_DCDC_CAP_UNIT y0_bot[1] y0_top[1] DCDC_CAP_UNIT
Xgen_stage[1].gen_cap[76].u1_DCDC_CAP_UNIT y1_bot[1] y1_top[1] DCDC_CAP_UNIT
Xgen_stage[1].gen_cap[77].u0_DCDC_CAP_UNIT y0_bot[1] y0_top[1] DCDC_CAP_UNIT
Xgen_stage[1].gen_cap[77].u1_DCDC_CAP_UNIT y1_bot[1] y1_top[1] DCDC_CAP_UNIT
Xgen_stage[1].gen_cap[78].u0_DCDC_CAP_UNIT y0_bot[1] y0_top[1] DCDC_CAP_UNIT
Xgen_stage[1].gen_cap[78].u1_DCDC_CAP_UNIT y1_bot[1] y1_top[1] DCDC_CAP_UNIT
Xgen_stage[1].gen_cap[79].u0_DCDC_CAP_UNIT y0_bot[1] y0_top[1] DCDC_CAP_UNIT
Xgen_stage[1].gen_cap[79].u1_DCDC_CAP_UNIT y1_bot[1] y1_top[1] DCDC_CAP_UNIT
Xgen_stage[1].gen_cap[7].u0_DCDC_CAP_UNIT y0_bot[1] y0_top[1] DCDC_CAP_UNIT
Xgen_stage[1].gen_cap[7].u1_DCDC_CAP_UNIT y1_bot[1] y1_top[1] DCDC_CAP_UNIT
Xgen_stage[1].gen_cap[80].u0_DCDC_CAP_UNIT y0_bot[1] y0_top[1] DCDC_CAP_UNIT
Xgen_stage[1].gen_cap[80].u1_DCDC_CAP_UNIT y1_bot[1] y1_top[1] DCDC_CAP_UNIT
Xgen_stage[1].gen_cap[81].u0_DCDC_CAP_UNIT y0_bot[1] y0_top[1] DCDC_CAP_UNIT
Xgen_stage[1].gen_cap[81].u1_DCDC_CAP_UNIT y1_bot[1] y1_top[1] DCDC_CAP_UNIT
Xgen_stage[1].gen_cap[82].u0_DCDC_CAP_UNIT y0_bot[1] y0_top[1] DCDC_CAP_UNIT
Xgen_stage[1].gen_cap[82].u1_DCDC_CAP_UNIT y1_bot[1] y1_top[1] DCDC_CAP_UNIT
Xgen_stage[1].gen_cap[83].u0_DCDC_CAP_UNIT y0_bot[1] y0_top[1] DCDC_CAP_UNIT
Xgen_stage[1].gen_cap[83].u1_DCDC_CAP_UNIT y1_bot[1] y1_top[1] DCDC_CAP_UNIT
Xgen_stage[1].gen_cap[84].u0_DCDC_CAP_UNIT y0_bot[1] y0_top[1] DCDC_CAP_UNIT
Xgen_stage[1].gen_cap[84].u1_DCDC_CAP_UNIT y1_bot[1] y1_top[1] DCDC_CAP_UNIT
Xgen_stage[1].gen_cap[85].u0_DCDC_CAP_UNIT y0_bot[1] y0_top[1] DCDC_CAP_UNIT
Xgen_stage[1].gen_cap[85].u1_DCDC_CAP_UNIT y1_bot[1] y1_top[1] DCDC_CAP_UNIT
Xgen_stage[1].gen_cap[86].u0_DCDC_CAP_UNIT y0_bot[1] y0_top[1] DCDC_CAP_UNIT
Xgen_stage[1].gen_cap[86].u1_DCDC_CAP_UNIT y1_bot[1] y1_top[1] DCDC_CAP_UNIT
Xgen_stage[1].gen_cap[87].u0_DCDC_CAP_UNIT y0_bot[1] y0_top[1] DCDC_CAP_UNIT
Xgen_stage[1].gen_cap[87].u1_DCDC_CAP_UNIT y1_bot[1] y1_top[1] DCDC_CAP_UNIT
Xgen_stage[1].gen_cap[88].u0_DCDC_CAP_UNIT y0_bot[1] y0_top[1] DCDC_CAP_UNIT
Xgen_stage[1].gen_cap[88].u1_DCDC_CAP_UNIT y1_bot[1] y1_top[1] DCDC_CAP_UNIT
Xgen_stage[1].gen_cap[89].u0_DCDC_CAP_UNIT y0_bot[1] y0_top[1] DCDC_CAP_UNIT
Xgen_stage[1].gen_cap[89].u1_DCDC_CAP_UNIT y1_bot[1] y1_top[1] DCDC_CAP_UNIT
Xgen_stage[1].gen_cap[8].u0_DCDC_CAP_UNIT y0_bot[1] y0_top[1] DCDC_CAP_UNIT
Xgen_stage[1].gen_cap[8].u1_DCDC_CAP_UNIT y1_bot[1] y1_top[1] DCDC_CAP_UNIT
Xgen_stage[1].gen_cap[90].u0_DCDC_CAP_UNIT y0_bot[1] y0_top[1] DCDC_CAP_UNIT
Xgen_stage[1].gen_cap[90].u1_DCDC_CAP_UNIT y1_bot[1] y1_top[1] DCDC_CAP_UNIT
Xgen_stage[1].gen_cap[91].u0_DCDC_CAP_UNIT y0_bot[1] y0_top[1] DCDC_CAP_UNIT
Xgen_stage[1].gen_cap[91].u1_DCDC_CAP_UNIT y1_bot[1] y1_top[1] DCDC_CAP_UNIT
Xgen_stage[1].gen_cap[92].u0_DCDC_CAP_UNIT y0_bot[1] y0_top[1] DCDC_CAP_UNIT
Xgen_stage[1].gen_cap[92].u1_DCDC_CAP_UNIT y1_bot[1] y1_top[1] DCDC_CAP_UNIT
Xgen_stage[1].gen_cap[93].u0_DCDC_CAP_UNIT y0_bot[1] y0_top[1] DCDC_CAP_UNIT
Xgen_stage[1].gen_cap[93].u1_DCDC_CAP_UNIT y1_bot[1] y1_top[1] DCDC_CAP_UNIT
Xgen_stage[1].gen_cap[94].u0_DCDC_CAP_UNIT y0_bot[1] y0_top[1] DCDC_CAP_UNIT
Xgen_stage[1].gen_cap[94].u1_DCDC_CAP_UNIT y1_bot[1] y1_top[1] DCDC_CAP_UNIT
Xgen_stage[1].gen_cap[95].u0_DCDC_CAP_UNIT y0_bot[1] y0_top[1] DCDC_CAP_UNIT
Xgen_stage[1].gen_cap[95].u1_DCDC_CAP_UNIT y1_bot[1] y1_top[1] DCDC_CAP_UNIT
Xgen_stage[1].gen_cap[96].u0_DCDC_CAP_UNIT y0_bot[1] y0_top[1] DCDC_CAP_UNIT
Xgen_stage[1].gen_cap[96].u1_DCDC_CAP_UNIT y1_bot[1] y1_top[1] DCDC_CAP_UNIT
Xgen_stage[1].gen_cap[97].u0_DCDC_CAP_UNIT y0_bot[1] y0_top[1] DCDC_CAP_UNIT
Xgen_stage[1].gen_cap[97].u1_DCDC_CAP_UNIT y1_bot[1] y1_top[1] DCDC_CAP_UNIT
Xgen_stage[1].gen_cap[98].u0_DCDC_CAP_UNIT y0_bot[1] y0_top[1] DCDC_CAP_UNIT
Xgen_stage[1].gen_cap[98].u1_DCDC_CAP_UNIT y1_bot[1] y1_top[1] DCDC_CAP_UNIT
Xgen_stage[1].gen_cap[99].u0_DCDC_CAP_UNIT y0_bot[1] y0_top[1] DCDC_CAP_UNIT
Xgen_stage[1].gen_cap[99].u1_DCDC_CAP_UNIT y1_bot[1] y1_top[1] DCDC_CAP_UNIT
Xgen_stage[1].gen_cap[9].u0_DCDC_CAP_UNIT y0_bot[1] y0_top[1] DCDC_CAP_UNIT
Xgen_stage[1].gen_cap[9].u1_DCDC_CAP_UNIT y1_bot[1] y1_top[1] DCDC_CAP_UNIT
Xgen_stage[1].gen_conv[0].u_DCDC_CONV2TO1 VGND VPWR clk0 clk0b clk1
+ clk1b y0_top[1] y1_top[1] y0_bot[1] y1_bot[1]
+ gen_stage[1].genblk1.u_DCDC_POWMUX.vhigh
+ gen_stage[2].genblk1.u_DCDC_POWMUX.vin
+ gen_stage[1].genblk1.u_DCDC_POWMUX.vlow DCDC_CONV2TO1
Xgen_stage[1].gen_conv[10].u_DCDC_CONV2TO1 VGND VPWR clk0 clk0b clk1
+ clk1b y0_top[1] y1_top[1] y0_bot[1] y1_bot[1]
+ gen_stage[1].genblk1.u_DCDC_POWMUX.vhigh
+ gen_stage[2].genblk1.u_DCDC_POWMUX.vin
+ gen_stage[1].genblk1.u_DCDC_POWMUX.vlow DCDC_CONV2TO1
Xgen_stage[1].gen_conv[11].u_DCDC_CONV2TO1 VGND VPWR clk0 clk0b clk1
+ clk1b y0_top[1] y1_top[1] y0_bot[1] y1_bot[1]
+ gen_stage[1].genblk1.u_DCDC_POWMUX.vhigh
+ gen_stage[2].genblk1.u_DCDC_POWMUX.vin
+ gen_stage[1].genblk1.u_DCDC_POWMUX.vlow DCDC_CONV2TO1
Xgen_stage[1].gen_conv[12].u_DCDC_CONV2TO1 VGND VPWR clk0 clk0b clk1
+ clk1b y0_top[1] y1_top[1] y0_bot[1] y1_bot[1]
+ gen_stage[1].genblk1.u_DCDC_POWMUX.vhigh
+ gen_stage[2].genblk1.u_DCDC_POWMUX.vin
+ gen_stage[1].genblk1.u_DCDC_POWMUX.vlow DCDC_CONV2TO1
Xgen_stage[1].gen_conv[13].u_DCDC_CONV2TO1 VGND VPWR clk0 clk0b clk1
+ clk1b y0_top[1] y1_top[1] y0_bot[1] y1_bot[1]
+ gen_stage[1].genblk1.u_DCDC_POWMUX.vhigh
+ gen_stage[2].genblk1.u_DCDC_POWMUX.vin
+ gen_stage[1].genblk1.u_DCDC_POWMUX.vlow DCDC_CONV2TO1
Xgen_stage[1].gen_conv[14].u_DCDC_CONV2TO1 VGND VPWR clk0 clk0b clk1
+ clk1b y0_top[1] y1_top[1] y0_bot[1] y1_bot[1]
+ gen_stage[1].genblk1.u_DCDC_POWMUX.vhigh
+ gen_stage[2].genblk1.u_DCDC_POWMUX.vin
+ gen_stage[1].genblk1.u_DCDC_POWMUX.vlow DCDC_CONV2TO1