* NGSPICE file created from opamp_sample_0005.ext - technology: sky130A

.subckt opamp_sample_0005 GND VOUT VDD VN VP CS_BIAS DIFFPAIR_BIAS
X0 VOUT.t84 a_n7097_7899.t16 VDD.t187 VDD.t154 sky130_fd_pr__pfet_01v8 ad=1.155 pd=7.33 as=2.73 ps=14.78 w=7 l=1
X1 VDD.t186 a_n7097_7899.t17 VOUT.t83 VDD.t152 sky130_fd_pr__pfet_01v8 ad=1.155 pd=7.33 as=1.155 ps=7.33 w=7 l=1
X2 VOUT.t14 CS_BIAS.t32 GND.t179 GND.t127 sky130_fd_pr__nfet_01v8 ad=0.99 pd=6.33 as=0.99 ps=6.33 w=6 l=2
X3 VDD.t96 VDD.t94 VDD.t95 VDD.t71 sky130_fd_pr__pfet_01v8 ad=1.95 pd=10.78 as=0 ps=0 w=5 l=1
X4 VOUT.t82 a_n7097_7899.t18 VDD.t185 VDD.t150 sky130_fd_pr__pfet_01v8 ad=1.155 pd=7.33 as=1.155 ps=7.33 w=7 l=1
X5 VOUT.t85 CS_BIAS.t33 GND.t178 GND.t125 sky130_fd_pr__nfet_01v8 ad=0.99 pd=6.33 as=2.34 ps=12.78 w=6 l=2
X6 VDD.t93 VDD.t91 VDD.t92 VDD.t64 sky130_fd_pr__pfet_01v8 ad=1.95 pd=10.78 as=0 ps=0 w=5 l=1
X7 VDD.t90 VDD.t88 VDD.t89 VDD.t51 sky130_fd_pr__pfet_01v8 ad=2.73 pd=14.78 as=0 ps=0 w=7 l=1
X8 a_n7097_7899.t10 VN.t5 a_n1455_n3628.t19 GND.t11 sky130_fd_pr__nfet_01v8 ad=0.99 pd=6.33 as=2.34 ps=12.78 w=6 l=1
X9 VOUT.t81 a_n7097_7899.t19 VDD.t184 VDD.t150 sky130_fd_pr__pfet_01v8 ad=1.155 pd=7.33 as=1.155 ps=7.33 w=7 l=1
X10 VDD.t87 VDD.t85 VDD.t86 VDD.t78 sky130_fd_pr__pfet_01v8 ad=1.95 pd=10.78 as=0 ps=0 w=5 l=1
X11 VDD.t84 VDD.t81 VDD.t83 VDD.t82 sky130_fd_pr__pfet_01v8 ad=1.95 pd=10.78 as=0 ps=0 w=5 l=1
X12 VDD.t183 a_n7097_7899.t20 VOUT.t80 VDD.t147 sky130_fd_pr__pfet_01v8 ad=1.155 pd=7.33 as=1.155 ps=7.33 w=7 l=1
X13 GND.t177 CS_BIAS.t0 CS_BIAS.t1 GND.t145 sky130_fd_pr__nfet_01v8 ad=0.99 pd=6.33 as=0.99 ps=6.33 w=6 l=2
X14 VDD.t191 a_n2433_10060.t24 a_n2511_10256.t7 VDD.t190 sky130_fd_pr__pfet_01v8 ad=0.825 pd=5.33 as=1.95 ps=10.78 w=5 l=1
X15 VDD.t182 a_n7097_7899.t21 VOUT.t79 VDD.t145 sky130_fd_pr__pfet_01v8 ad=1.155 pd=7.33 as=1.155 ps=7.33 w=7 l=1
X16 VOUT.t1 CS_BIAS.t34 GND.t176 GND.t116 sky130_fd_pr__nfet_01v8 ad=0.99 pd=6.33 as=0.99 ps=6.33 w=6 l=2
X17 a_n2433_10060.t3 VP.t5 a_n1455_n3628.t4 GND.t7 sky130_fd_pr__nfet_01v8 ad=0.99 pd=6.33 as=2.34 ps=12.78 w=6 l=1
X18 a_n2511_10256.t15 a_n2433_10060.t9 a_n2433_10060.t10 VDD.t0 sky130_fd_pr__pfet_01v8 ad=0.825 pd=5.33 as=0.825 ps=5.33 w=5 l=1
X19 a_n1455_n3628.t5 DIFFPAIR_BIAS.t8 GND.t10 GND.t9 sky130_fd_pr__nfet_01v8 ad=2.34 pd=12.78 as=2.34 ps=12.78 w=6 l=2
X20 a_n1455_n3628.t3 VP.t6 a_n2433_10060.t2 GND.t6 sky130_fd_pr__nfet_01v8 ad=0.99 pd=6.33 as=0.99 ps=6.33 w=6 l=1
X21 VOUT.t2 CS_BIAS.t35 GND.t175 GND.t122 sky130_fd_pr__nfet_01v8 ad=0.99 pd=6.33 as=0.99 ps=6.33 w=6 l=2
X22 VOUT.t19 CS_BIAS.t36 GND.t174 GND.t120 sky130_fd_pr__nfet_01v8 ad=0.99 pd=6.33 as=0.99 ps=6.33 w=6 l=2
X23 VDD.t181 a_n7097_7899.t22 VOUT.t78 VDD.t142 sky130_fd_pr__pfet_01v8 ad=1.155 pd=7.33 as=1.155 ps=7.33 w=7 l=1
X24 VOUT.t77 a_n7097_7899.t23 VDD.t180 VDD.t140 sky130_fd_pr__pfet_01v8 ad=1.155 pd=7.33 as=1.155 ps=7.33 w=7 l=1
X25 GND.t173 CS_BIAS.t37 VOUT.t0 GND.t133 sky130_fd_pr__nfet_01v8 ad=0.99 pd=6.33 as=0.99 ps=6.33 w=6 l=2
X26 VOUT.t76 a_n7097_7899.t24 VDD.t179 VDD.t140 sky130_fd_pr__pfet_01v8 ad=1.155 pd=7.33 as=1.155 ps=7.33 w=7 l=1
X27 DIFFPAIR_BIAS.t7 DIFFPAIR_BIAS.t6 GND.t21 GND.t20 sky130_fd_pr__nfet_01v8 ad=2.34 pd=12.78 as=2.34 ps=12.78 w=6 l=2
X28 VN.t4 GND.t113 GND.t115 GND.t114 sky130_fd_pr__nfet_01v8 ad=0.165 pd=1.33 as=0.165 ps=1.33 w=1 l=0.5
X29 GND.t112 GND.t109 GND.t111 GND.t110 sky130_fd_pr__nfet_01v8 ad=2.34 pd=12.78 as=0 ps=0 w=6 l=2
X30 VDD.t2 a_n2433_10060.t25 a_n2511_10256.t6 VDD.t1 sky130_fd_pr__pfet_01v8 ad=0.825 pd=5.33 as=0.825 ps=5.33 w=5 l=1
X31 VDD.t13 a_n2433_10060.t26 a_n2154_8322.t7 VDD.t12 sky130_fd_pr__pfet_01v8 ad=0.825 pd=5.33 as=1.95 ps=10.78 w=5 l=1
X32 GND.t155 CS_BIAS.t38 VOUT.t17 GND.t154 sky130_fd_pr__nfet_01v8 ad=0.99 pd=6.33 as=0.99 ps=6.33 w=6 l=2
X33 VOUT.t75 a_n7097_7899.t25 VDD.t178 VDD.t131 sky130_fd_pr__pfet_01v8 ad=1.155 pd=7.33 as=1.155 ps=7.33 w=7 l=1
X34 GND.t108 GND.t106 VP.t4 GND.t107 sky130_fd_pr__nfet_01v8 ad=0.39 pd=2.78 as=0.165 ps=1.33 w=1 l=0.5
X35 GND.t105 GND.t102 GND.t104 GND.t103 sky130_fd_pr__nfet_01v8 ad=2.34 pd=12.78 as=0 ps=0 w=6 l=2
X36 GND.t172 CS_BIAS.t6 CS_BIAS.t7 GND.t140 sky130_fd_pr__nfet_01v8 ad=2.34 pd=12.78 as=0.99 ps=6.33 w=6 l=2
X37 GND.t171 CS_BIAS.t39 VOUT.t11 GND.t118 sky130_fd_pr__nfet_01v8 ad=0.99 pd=6.33 as=0.99 ps=6.33 w=6 l=2
X38 VOUT.t8 CS_BIAS.t40 GND.t170 GND.t158 sky130_fd_pr__nfet_01v8 ad=0.99 pd=6.33 as=2.34 ps=12.78 w=6 l=2
X39 VDD.t80 VDD.t77 VDD.t79 VDD.t78 sky130_fd_pr__pfet_01v8 ad=1.95 pd=10.78 as=0 ps=0 w=5 l=1
X40 VOUT.t74 a_n7097_7899.t26 VDD.t177 VDD.t119 sky130_fd_pr__pfet_01v8 ad=1.155 pd=7.33 as=1.155 ps=7.33 w=7 l=1
X41 VDD.t176 a_n7097_7899.t27 VOUT.t73 VDD.t128 sky130_fd_pr__pfet_01v8 ad=2.73 pd=14.78 as=1.155 ps=7.33 w=7 l=1
X42 CS_BIAS.t29 CS_BIAS.t28 GND.t169 GND.t125 sky130_fd_pr__nfet_01v8 ad=0.99 pd=6.33 as=2.34 ps=12.78 w=6 l=2
X43 DIFFPAIR_BIAS.t5 DIFFPAIR_BIAS.t4 GND.t23 GND.t22 sky130_fd_pr__nfet_01v8 ad=2.34 pd=12.78 as=2.34 ps=12.78 w=6 l=2
X44 CS_BIAS.t27 CS_BIAS.t26 GND.t168 GND.t158 sky130_fd_pr__nfet_01v8 ad=0.99 pd=6.33 as=2.34 ps=12.78 w=6 l=2
X45 a_n1455_n3628.t9 VP.t7 a_n2433_10060.t5 GND.t19 sky130_fd_pr__nfet_01v8 ad=2.34 pd=12.78 as=0.99 ps=6.33 w=6 l=1
X46 GND.t101 GND.t99 GND.t100 GND.t25 sky130_fd_pr__nfet_01v8 ad=2.34 pd=12.78 as=0 ps=0 w=6 l=2
X47 GND.t98 GND.t96 VP.t3 GND.t97 sky130_fd_pr__nfet_01v8 ad=0.165 pd=1.33 as=0.39 ps=2.78 w=1 l=0.5
X48 GND.t167 CS_BIAS.t24 CS_BIAS.t25 GND.t136 sky130_fd_pr__nfet_01v8 ad=2.34 pd=12.78 as=0.99 ps=6.33 w=6 l=2
X49 VDD.t76 VDD.t74 VDD.t75 VDD.t44 sky130_fd_pr__pfet_01v8 ad=2.73 pd=14.78 as=0 ps=0 w=7 l=1
X50 VDD.t8 a_n2433_10060.t27 a_n2154_8322.t6 VDD.t7 sky130_fd_pr__pfet_01v8 ad=0.825 pd=5.33 as=1.95 ps=10.78 w=5 l=1
X51 VOUT.t72 a_n7097_7899.t28 VDD.t175 VDD.t114 sky130_fd_pr__pfet_01v8 ad=1.155 pd=7.33 as=1.155 ps=7.33 w=7 l=1
X52 a_n1455_n3628.t8 DIFFPAIR_BIAS.t9 GND.t15 GND.t14 sky130_fd_pr__nfet_01v8 ad=2.34 pd=12.78 as=2.34 ps=12.78 w=6 l=2
X53 VDD.t159 a_n7097_7899.t29 VOUT.t71 VDD.t112 sky130_fd_pr__pfet_01v8 ad=1.155 pd=7.33 as=1.155 ps=7.33 w=7 l=1
X54 GND.t166 CS_BIAS.t22 CS_BIAS.t23 GND.t118 sky130_fd_pr__nfet_01v8 ad=0.99 pd=6.33 as=0.99 ps=6.33 w=6 l=2
X55 a_n7097_7899.t3 VN.t6 a_n1455_n3628.t18 GND.t16 sky130_fd_pr__nfet_01v8 ad=0.99 pd=6.33 as=0.99 ps=6.33 w=6 l=1
X56 VOUT.t92 a_n2154_8322.t16 sky130_fd_pr__cap_mim_m3_1 l=12 w=12
X57 VDD.t106 a_n2433_10060.t28 a_n2511_10256.t5 VDD.t105 sky130_fd_pr__pfet_01v8 ad=0.825 pd=5.33 as=1.95 ps=10.78 w=5 l=1
X58 a_n2511_10256.t4 a_n2433_10060.t29 VDD.t193 VDD.t192 sky130_fd_pr__pfet_01v8 ad=1.95 pd=10.78 as=0.825 ps=5.33 w=5 l=1
X59 VOUT.t93 a_n2154_8322.t16 sky130_fd_pr__cap_mim_m3_1 l=12 w=12
X60 VDD.t73 VDD.t70 VDD.t72 VDD.t71 sky130_fd_pr__pfet_01v8 ad=1.95 pd=10.78 as=0 ps=0 w=5 l=1
X61 CS_BIAS.t11 CS_BIAS.t10 GND.t165 GND.t148 sky130_fd_pr__nfet_01v8 ad=0.99 pd=6.33 as=0.99 ps=6.33 w=6 l=2
X62 VOUT.t70 a_n7097_7899.t30 VDD.t174 VDD.t135 sky130_fd_pr__pfet_01v8 ad=1.155 pd=7.33 as=1.155 ps=7.33 w=7 l=1
X63 VDD.t173 a_n7097_7899.t31 VOUT.t69 VDD.t142 sky130_fd_pr__pfet_01v8 ad=1.155 pd=7.33 as=1.155 ps=7.33 w=7 l=1
X64 VN.t3 GND.t93 GND.t95 GND.t94 sky130_fd_pr__nfet_01v8 ad=0.165 pd=1.33 as=0.165 ps=1.33 w=1 l=0.5
X65 GND.t164 CS_BIAS.t8 CS_BIAS.t9 GND.t131 sky130_fd_pr__nfet_01v8 ad=0.99 pd=6.33 as=0.99 ps=6.33 w=6 l=2
X66 VDD.t172 a_n7097_7899.t32 VOUT.t68 VDD.t133 sky130_fd_pr__pfet_01v8 ad=1.155 pd=7.33 as=1.155 ps=7.33 w=7 l=1
X67 VOUT.t21 CS_BIAS.t41 GND.t163 GND.t116 sky130_fd_pr__nfet_01v8 ad=0.99 pd=6.33 as=0.99 ps=6.33 w=6 l=2
X68 GND.t92 GND.t90 GND.t91 GND.t59 sky130_fd_pr__nfet_01v8 ad=2.34 pd=12.78 as=0 ps=0 w=6 l=1
X69 VDD.t69 VDD.t67 VDD.t68 VDD.t33 sky130_fd_pr__pfet_01v8 ad=2.73 pd=14.78 as=0 ps=0 w=7 l=1
X70 VDD.t171 a_n7097_7899.t33 VOUT.t67 VDD.t128 sky130_fd_pr__pfet_01v8 ad=2.73 pd=14.78 as=1.155 ps=7.33 w=7 l=1
X71 a_n2433_10060.t8 a_n2433_10060.t7 a_n2511_10256.t14 VDD.t102 sky130_fd_pr__pfet_01v8 ad=1.95 pd=10.78 as=0.825 ps=5.33 w=5 l=1
X72 a_n1455_n3628.t17 VN.t7 a_n7097_7899.t9 GND.t4 sky130_fd_pr__nfet_01v8 ad=2.34 pd=12.78 as=0.99 ps=6.33 w=6 l=1
X73 GND.t162 CS_BIAS.t42 VOUT.t20 GND.t133 sky130_fd_pr__nfet_01v8 ad=0.99 pd=6.33 as=0.99 ps=6.33 w=6 l=2
X74 VDD.t170 a_n7097_7899.t34 VOUT.t66 VDD.t126 sky130_fd_pr__pfet_01v8 ad=2.73 pd=14.78 as=1.155 ps=7.33 w=7 l=1
X75 VDD.t169 a_n7097_7899.t35 VOUT.t65 VDD.t133 sky130_fd_pr__pfet_01v8 ad=1.155 pd=7.33 as=1.155 ps=7.33 w=7 l=1
X76 GND.t161 CS_BIAS.t43 VOUT.t91 GND.t154 sky130_fd_pr__nfet_01v8 ad=0.99 pd=6.33 as=0.99 ps=6.33 w=6 l=2
X77 VOUT.t64 a_n7097_7899.t36 VDD.t168 VDD.t124 sky130_fd_pr__pfet_01v8 ad=1.155 pd=7.33 as=1.155 ps=7.33 w=7 l=1
X78 GND.t160 CS_BIAS.t20 CS_BIAS.t21 GND.t154 sky130_fd_pr__nfet_01v8 ad=0.99 pd=6.33 as=0.99 ps=6.33 w=6 l=2
X79 VOUT.t5 CS_BIAS.t44 GND.t159 GND.t158 sky130_fd_pr__nfet_01v8 ad=0.99 pd=6.33 as=2.34 ps=12.78 w=6 l=2
X80 a_n2154_8322.t15 a_n2433_10060.t30 a_n7097_7899.t4 VDD.t17 sky130_fd_pr__pfet_01v8 ad=0.825 pd=5.33 as=0.825 ps=5.33 w=5 l=1
X81 VOUT.t63 a_n7097_7899.t37 VDD.t165 VDD.t122 sky130_fd_pr__pfet_01v8 ad=1.155 pd=7.33 as=1.155 ps=7.33 w=7 l=1
X82 VOUT.t18 CS_BIAS.t45 GND.t153 GND.t148 sky130_fd_pr__nfet_01v8 ad=0.99 pd=6.33 as=0.99 ps=6.33 w=6 l=2
X83 VOUT.t62 a_n7097_7899.t38 VDD.t167 VDD.t122 sky130_fd_pr__pfet_01v8 ad=1.155 pd=7.33 as=1.155 ps=7.33 w=7 l=1
X84 VDD.t100 a_n2433_10060.t31 a_n2154_8322.t5 VDD.t99 sky130_fd_pr__pfet_01v8 ad=0.825 pd=5.33 as=0.825 ps=5.33 w=5 l=1
X85 VDD.t166 a_n7097_7899.t39 VOUT.t61 VDD.t152 sky130_fd_pr__pfet_01v8 ad=1.155 pd=7.33 as=1.155 ps=7.33 w=7 l=1
X86 CS_BIAS.t19 CS_BIAS.t18 GND.t157 GND.t120 sky130_fd_pr__nfet_01v8 ad=0.99 pd=6.33 as=0.99 ps=6.33 w=6 l=2
X87 VOUT.t60 a_n7097_7899.t40 VDD.t164 VDD.t119 sky130_fd_pr__pfet_01v8 ad=1.155 pd=7.33 as=1.155 ps=7.33 w=7 l=1
X88 GND.t156 CS_BIAS.t46 VOUT.t90 GND.t145 sky130_fd_pr__nfet_01v8 ad=0.99 pd=6.33 as=0.99 ps=6.33 w=6 l=2
X89 GND.t89 GND.t87 GND.t88 GND.t63 sky130_fd_pr__nfet_01v8 ad=2.34 pd=12.78 as=0 ps=0 w=6 l=2
X90 VDD.t163 a_n7097_7899.t41 VOUT.t59 VDD.t116 sky130_fd_pr__pfet_01v8 ad=1.155 pd=7.33 as=1.155 ps=7.33 w=7 l=1
X91 a_n7097_7899.t11 a_n2433_10060.t32 a_n2154_8322.t14 VDD.t107 sky130_fd_pr__pfet_01v8 ad=0.825 pd=5.33 as=1.95 ps=10.78 w=5 l=1
X92 VDD.t66 VDD.t63 VDD.t65 VDD.t64 sky130_fd_pr__pfet_01v8 ad=1.95 pd=10.78 as=0 ps=0 w=5 l=1
X93 GND.t86 GND.t84 GND.t85 GND.t43 sky130_fd_pr__nfet_01v8 ad=2.34 pd=12.78 as=0 ps=0 w=6 l=2
X94 VOUT.t58 a_n7097_7899.t42 VDD.t162 VDD.t154 sky130_fd_pr__pfet_01v8 ad=1.155 pd=7.33 as=2.73 ps=14.78 w=7 l=1
X95 VDD.t161 a_n7097_7899.t43 VOUT.t57 VDD.t145 sky130_fd_pr__pfet_01v8 ad=1.155 pd=7.33 as=1.155 ps=7.33 w=7 l=1
X96 VOUT.t9 CS_BIAS.t47 GND.t152 GND.t143 sky130_fd_pr__nfet_01v8 ad=0.99 pd=6.33 as=0.99 ps=6.33 w=6 l=2
X97 VDD.t11 a_n2433_10060.t33 a_n2154_8322.t4 VDD.t10 sky130_fd_pr__pfet_01v8 ad=0.825 pd=5.33 as=0.825 ps=5.33 w=5 l=1
X98 VDD.t62 VDD.t60 VDD.t61 VDD.t22 sky130_fd_pr__pfet_01v8 ad=2.73 pd=14.78 as=0 ps=0 w=7 l=1
X99 GND.t83 GND.t81 VN.t2 GND.t82 sky130_fd_pr__nfet_01v8 ad=0.39 pd=2.78 as=0.165 ps=1.33 w=1 l=0.5
X100 a_n7097_7899.t1 VN.t8 a_n1455_n3628.t16 GND.t8 sky130_fd_pr__nfet_01v8 ad=0.99 pd=6.33 as=0.99 ps=6.33 w=6 l=1
X101 VOUT.t56 a_n7097_7899.t44 VDD.t160 VDD.t114 sky130_fd_pr__pfet_01v8 ad=1.155 pd=7.33 as=1.155 ps=7.33 w=7 l=1
X102 VP.t2 GND.t78 GND.t80 GND.t79 sky130_fd_pr__nfet_01v8 ad=0.165 pd=1.33 as=0.165 ps=1.33 w=1 l=0.5
X103 CS_BIAS.t17 CS_BIAS.t16 GND.t151 GND.t143 sky130_fd_pr__nfet_01v8 ad=0.99 pd=6.33 as=0.99 ps=6.33 w=6 l=2
X104 a_n2154_8322.t3 a_n2433_10060.t34 VDD.t6 VDD.t5 sky130_fd_pr__pfet_01v8 ad=0.825 pd=5.33 as=0.825 ps=5.33 w=5 l=1
X105 a_n2511_10256.t3 a_n2433_10060.t35 VDD.t104 VDD.t103 sky130_fd_pr__pfet_01v8 ad=0.825 pd=5.33 as=0.825 ps=5.33 w=5 l=1
X106 VOUT.t94 a_n2154_8322.t16 sky130_fd_pr__cap_mim_m3_1 l=12 w=12
X107 VOUT.t55 a_n7097_7899.t45 VDD.t158 VDD.t110 sky130_fd_pr__pfet_01v8 ad=1.155 pd=7.33 as=2.73 ps=14.78 w=7 l=1
X108 GND.t150 CS_BIAS.t48 VOUT.t3 GND.t140 sky130_fd_pr__nfet_01v8 ad=2.34 pd=12.78 as=0.99 ps=6.33 w=6 l=2
X109 a_n2511_10256.t2 a_n2433_10060.t36 VDD.t16 VDD.t15 sky130_fd_pr__pfet_01v8 ad=1.95 pd=10.78 as=0.825 ps=5.33 w=5 l=1
X110 a_n2154_8322.t13 a_n2433_10060.t37 a_n7097_7899.t2 VDD.t9 sky130_fd_pr__pfet_01v8 ad=1.95 pd=10.78 as=0.825 ps=5.33 w=5 l=1
X111 DIFFPAIR_BIAS.t3 DIFFPAIR_BIAS.t2 GND.t3 GND.t2 sky130_fd_pr__nfet_01v8 ad=2.34 pd=12.78 as=2.34 ps=12.78 w=6 l=2
X112 VDD.t157 a_n7097_7899.t46 VOUT.t54 VDD.t108 sky130_fd_pr__pfet_01v8 ad=1.155 pd=7.33 as=1.155 ps=7.33 w=7 l=1
X113 VDD.t59 VDD.t57 VDD.t58 VDD.t51 sky130_fd_pr__pfet_01v8 ad=2.73 pd=14.78 as=0 ps=0 w=7 l=1
X114 VOUT.t53 a_n7097_7899.t47 VDD.t156 VDD.t124 sky130_fd_pr__pfet_01v8 ad=1.155 pd=7.33 as=1.155 ps=7.33 w=7 l=1
X115 VOUT.t52 a_n7097_7899.t48 VDD.t155 VDD.t154 sky130_fd_pr__pfet_01v8 ad=1.155 pd=7.33 as=2.73 ps=14.78 w=7 l=1
X116 GND.t77 GND.t75 GND.t76 GND.t35 sky130_fd_pr__nfet_01v8 ad=2.34 pd=12.78 as=0 ps=0 w=6 l=1
X117 VDD.t153 a_n7097_7899.t49 VOUT.t51 VDD.t152 sky130_fd_pr__pfet_01v8 ad=1.155 pd=7.33 as=1.155 ps=7.33 w=7 l=1
X118 a_n2433_10060.t18 a_n2433_10060.t17 a_n2511_10256.t13 VDD.t18 sky130_fd_pr__pfet_01v8 ad=0.825 pd=5.33 as=0.825 ps=5.33 w=5 l=1
X119 VOUT.t89 CS_BIAS.t49 GND.t149 GND.t148 sky130_fd_pr__nfet_01v8 ad=0.99 pd=6.33 as=0.99 ps=6.33 w=6 l=2
X120 VDD.t56 VDD.t54 VDD.t55 VDD.t44 sky130_fd_pr__pfet_01v8 ad=2.73 pd=14.78 as=0 ps=0 w=7 l=1
X121 GND.t147 CS_BIAS.t50 VOUT.t10 GND.t136 sky130_fd_pr__nfet_01v8 ad=2.34 pd=12.78 as=0.99 ps=6.33 w=6 l=2
X122 VOUT.t50 a_n7097_7899.t50 VDD.t151 VDD.t150 sky130_fd_pr__pfet_01v8 ad=1.155 pd=7.33 as=1.155 ps=7.33 w=7 l=1
X123 a_n1455_n3628.t2 VP.t8 a_n2433_10060.t1 GND.t5 sky130_fd_pr__nfet_01v8 ad=0.99 pd=6.33 as=0.99 ps=6.33 w=6 l=1
X124 GND.t146 CS_BIAS.t51 VOUT.t12 GND.t145 sky130_fd_pr__nfet_01v8 ad=0.99 pd=6.33 as=0.99 ps=6.33 w=6 l=2
X125 GND.t74 GND.t72 GND.t73 GND.t63 sky130_fd_pr__nfet_01v8 ad=2.34 pd=12.78 as=0 ps=0 w=6 l=2
X126 VDD.t4 a_n2433_10060.t38 a_n2511_10256.t1 VDD.t3 sky130_fd_pr__pfet_01v8 ad=0.825 pd=5.33 as=0.825 ps=5.33 w=5 l=1
X127 VDD.t53 VDD.t50 VDD.t52 VDD.t51 sky130_fd_pr__pfet_01v8 ad=2.73 pd=14.78 as=0 ps=0 w=7 l=1
X128 VDD.t49 VDD.t47 VDD.t48 VDD.t37 sky130_fd_pr__pfet_01v8 ad=1.95 pd=10.78 as=0 ps=0 w=5 l=1
X129 a_n2154_8322.t12 a_n2433_10060.t39 a_n7097_7899.t14 VDD.t102 sky130_fd_pr__pfet_01v8 ad=1.95 pd=10.78 as=0.825 ps=5.33 w=5 l=1
X130 GND.t71 GND.t69 VN.t1 GND.t70 sky130_fd_pr__nfet_01v8 ad=0.165 pd=1.33 as=0.165 ps=1.33 w=1 l=0.5
X131 VOUT.t95 a_n2154_8322.t16 sky130_fd_pr__cap_mim_m3_1 l=12 w=12
X132 VDD.t149 a_n7097_7899.t51 VOUT.t49 VDD.t147 sky130_fd_pr__pfet_01v8 ad=1.155 pd=7.33 as=1.155 ps=7.33 w=7 l=1
X133 a_n1455_n3628.t7 DIFFPAIR_BIAS.t10 GND.t13 GND.t12 sky130_fd_pr__nfet_01v8 ad=2.34 pd=12.78 as=2.34 ps=12.78 w=6 l=2
X134 GND.t68 GND.t66 GND.t67 GND.t43 sky130_fd_pr__nfet_01v8 ad=2.34 pd=12.78 as=0 ps=0 w=6 l=2
X135 a_n2511_10256.t0 a_n2433_10060.t40 VDD.t20 VDD.t19 sky130_fd_pr__pfet_01v8 ad=0.825 pd=5.33 as=0.825 ps=5.33 w=5 l=1
X136 VDD.t148 a_n7097_7899.t52 VOUT.t48 VDD.t147 sky130_fd_pr__pfet_01v8 ad=1.155 pd=7.33 as=1.155 ps=7.33 w=7 l=1
X137 VOUT.t47 a_n7097_7899.t53 VDD.t144 VDD.t135 sky130_fd_pr__pfet_01v8 ad=1.155 pd=7.33 as=1.155 ps=7.33 w=7 l=1
X138 VDD.t146 a_n7097_7899.t54 VOUT.t46 VDD.t145 sky130_fd_pr__pfet_01v8 ad=1.155 pd=7.33 as=1.155 ps=7.33 w=7 l=1
X139 VOUT.t87 CS_BIAS.t52 GND.t144 GND.t143 sky130_fd_pr__nfet_01v8 ad=0.99 pd=6.33 as=0.99 ps=6.33 w=6 l=2
X140 VDD.t143 a_n7097_7899.t55 VOUT.t45 VDD.t142 sky130_fd_pr__pfet_01v8 ad=1.155 pd=7.33 as=1.155 ps=7.33 w=7 l=1
X141 a_n2154_8322.t11 a_n2433_10060.t41 a_n7097_7899.t5 VDD.t18 sky130_fd_pr__pfet_01v8 ad=0.825 pd=5.33 as=0.825 ps=5.33 w=5 l=1
X142 a_n2433_10060.t4 VP.t9 a_n1455_n3628.t6 GND.t11 sky130_fd_pr__nfet_01v8 ad=0.99 pd=6.33 as=2.34 ps=12.78 w=6 l=1
X143 VOUT.t44 a_n7097_7899.t56 VDD.t141 VDD.t140 sky130_fd_pr__pfet_01v8 ad=1.155 pd=7.33 as=1.155 ps=7.33 w=7 l=1
X144 a_n1455_n3628.t15 VN.t9 a_n7097_7899.t15 GND.t19 sky130_fd_pr__nfet_01v8 ad=2.34 pd=12.78 as=0.99 ps=6.33 w=6 l=1
X145 a_n2511_10256.t12 a_n2433_10060.t15 a_n2433_10060.t16 VDD.t101 sky130_fd_pr__pfet_01v8 ad=0.825 pd=5.33 as=0.825 ps=5.33 w=5 l=1
X146 GND.t139 CS_BIAS.t53 VOUT.t88 GND.t131 sky130_fd_pr__nfet_01v8 ad=0.99 pd=6.33 as=0.99 ps=6.33 w=6 l=2
X147 GND.t142 CS_BIAS.t54 VOUT.t6 GND.t129 sky130_fd_pr__nfet_01v8 ad=0.99 pd=6.33 as=0.99 ps=6.33 w=6 l=2
X148 VOUT.t43 a_n7097_7899.t57 VDD.t139 VDD.t131 sky130_fd_pr__pfet_01v8 ad=1.155 pd=7.33 as=1.155 ps=7.33 w=7 l=1
X149 a_n2433_10060.t23 VP.t10 a_n1455_n3628.t11 GND.t16 sky130_fd_pr__nfet_01v8 ad=0.99 pd=6.33 as=0.99 ps=6.33 w=6 l=1
X150 a_n7097_7899.t6 VN.t10 a_n1455_n3628.t14 GND.t7 sky130_fd_pr__nfet_01v8 ad=0.99 pd=6.33 as=2.34 ps=12.78 w=6 l=1
X151 GND.t141 CS_BIAS.t55 VOUT.t7 GND.t140 sky130_fd_pr__nfet_01v8 ad=2.34 pd=12.78 as=0.99 ps=6.33 w=6 l=2
X152 a_n1455_n3628.t13 VN.t11 a_n7097_7899.t7 GND.t6 sky130_fd_pr__nfet_01v8 ad=0.99 pd=6.33 as=0.99 ps=6.33 w=6 l=1
X153 a_n7097_7899.t12 a_n2433_10060.t42 a_n2154_8322.t10 VDD.t101 sky130_fd_pr__pfet_01v8 ad=0.825 pd=5.33 as=0.825 ps=5.33 w=5 l=1
X154 VDD.t138 a_n7097_7899.t58 VOUT.t42 VDD.t108 sky130_fd_pr__pfet_01v8 ad=1.155 pd=7.33 as=1.155 ps=7.33 w=7 l=1
X155 a_n7097_7899.t13 a_n2433_10060.t43 a_n2154_8322.t9 VDD.t14 sky130_fd_pr__pfet_01v8 ad=0.825 pd=5.33 as=1.95 ps=10.78 w=5 l=1
X156 VDD.t46 VDD.t43 VDD.t45 VDD.t44 sky130_fd_pr__pfet_01v8 ad=2.73 pd=14.78 as=0 ps=0 w=7 l=1
X157 VDD.t137 a_n7097_7899.t59 VOUT.t41 VDD.t112 sky130_fd_pr__pfet_01v8 ad=1.155 pd=7.33 as=1.155 ps=7.33 w=7 l=1
X158 GND.t65 GND.t62 GND.t64 GND.t63 sky130_fd_pr__nfet_01v8 ad=2.34 pd=12.78 as=0 ps=0 w=6 l=2
X159 GND.t61 GND.t58 GND.t60 GND.t59 sky130_fd_pr__nfet_01v8 ad=2.34 pd=12.78 as=0 ps=0 w=6 l=1
X160 a_n2511_10256.t11 a_n2433_10060.t13 a_n2433_10060.t14 VDD.t14 sky130_fd_pr__pfet_01v8 ad=0.825 pd=5.33 as=1.95 ps=10.78 w=5 l=1
X161 a_n2511_10256.t10 a_n2433_10060.t11 a_n2433_10060.t12 VDD.t107 sky130_fd_pr__pfet_01v8 ad=0.825 pd=5.33 as=1.95 ps=10.78 w=5 l=1
X162 VDD.t42 VDD.t40 VDD.t41 VDD.t33 sky130_fd_pr__pfet_01v8 ad=2.73 pd=14.78 as=0 ps=0 w=7 l=1
X163 CS_BIAS.t15 CS_BIAS.t14 GND.t138 GND.t127 sky130_fd_pr__nfet_01v8 ad=0.99 pd=6.33 as=0.99 ps=6.33 w=6 l=2
X164 GND.t137 CS_BIAS.t56 VOUT.t23 GND.t136 sky130_fd_pr__nfet_01v8 ad=2.34 pd=12.78 as=0.99 ps=6.33 w=6 l=2
X165 a_n1455_n3628.t1 VP.t11 a_n2433_10060.t0 GND.t4 sky130_fd_pr__nfet_01v8 ad=2.34 pd=12.78 as=0.99 ps=6.33 w=6 l=1
X166 GND.t57 GND.t55 GND.t56 GND.t39 sky130_fd_pr__nfet_01v8 ad=2.34 pd=12.78 as=0 ps=0 w=6 l=2
X167 VOUT.t40 a_n7097_7899.t60 VDD.t136 VDD.t135 sky130_fd_pr__pfet_01v8 ad=1.155 pd=7.33 as=1.155 ps=7.33 w=7 l=1
X168 VDD.t39 VDD.t36 VDD.t38 VDD.t37 sky130_fd_pr__pfet_01v8 ad=1.95 pd=10.78 as=0 ps=0 w=5 l=1
X169 a_n1455_n3628.t0 DIFFPAIR_BIAS.t11 GND.t1 GND.t0 sky130_fd_pr__nfet_01v8 ad=2.34 pd=12.78 as=2.34 ps=12.78 w=6 l=2
X170 VOUT.t96 a_n2154_8322.t16 sky130_fd_pr__cap_mim_m3_1 l=12 w=12
X171 GND.t54 GND.t52 GND.t53 GND.t39 sky130_fd_pr__nfet_01v8 ad=2.34 pd=12.78 as=0 ps=0 w=6 l=2
X172 VDD.t134 a_n7097_7899.t61 VOUT.t39 VDD.t133 sky130_fd_pr__pfet_01v8 ad=1.155 pd=7.33 as=1.155 ps=7.33 w=7 l=1
X173 GND.t135 CS_BIAS.t4 CS_BIAS.t5 GND.t129 sky130_fd_pr__nfet_01v8 ad=0.99 pd=6.33 as=0.99 ps=6.33 w=6 l=2
X174 VDD.t35 VDD.t32 VDD.t34 VDD.t33 sky130_fd_pr__pfet_01v8 ad=2.73 pd=14.78 as=0 ps=0 w=7 l=1
X175 VDD.t130 a_n7097_7899.t62 VOUT.t38 VDD.t126 sky130_fd_pr__pfet_01v8 ad=2.73 pd=14.78 as=1.155 ps=7.33 w=7 l=1
X176 VOUT.t37 a_n7097_7899.t63 VDD.t132 VDD.t131 sky130_fd_pr__pfet_01v8 ad=1.155 pd=7.33 as=1.155 ps=7.33 w=7 l=1
X177 VDD.t31 VDD.t29 VDD.t30 VDD.t22 sky130_fd_pr__pfet_01v8 ad=2.73 pd=14.78 as=0 ps=0 w=7 l=1
X178 VOUT.t97 a_n2154_8322.t16 sky130_fd_pr__cap_mim_m3_1 l=12 w=12
X179 VDD.t129 a_n7097_7899.t64 VOUT.t36 VDD.t128 sky130_fd_pr__pfet_01v8 ad=2.73 pd=14.78 as=1.155 ps=7.33 w=7 l=1
X180 VDD.t28 VDD.t25 VDD.t27 VDD.t26 sky130_fd_pr__pfet_01v8 ad=1.95 pd=10.78 as=0 ps=0 w=5 l=1
X181 VDD.t127 a_n7097_7899.t65 VOUT.t35 VDD.t126 sky130_fd_pr__pfet_01v8 ad=2.73 pd=14.78 as=1.155 ps=7.33 w=7 l=1
X182 a_n2154_8322.t2 a_n2433_10060.t44 VDD.t195 VDD.t194 sky130_fd_pr__pfet_01v8 ad=1.95 pd=10.78 as=0.825 ps=5.33 w=5 l=1
X183 GND.t134 CS_BIAS.t2 CS_BIAS.t3 GND.t133 sky130_fd_pr__nfet_01v8 ad=0.99 pd=6.33 as=0.99 ps=6.33 w=6 l=2
X184 VP.t1 GND.t49 GND.t51 GND.t50 sky130_fd_pr__nfet_01v8 ad=0.165 pd=1.33 as=0.165 ps=1.33 w=1 l=0.5
X185 GND.t132 CS_BIAS.t57 VOUT.t22 GND.t131 sky130_fd_pr__nfet_01v8 ad=0.99 pd=6.33 as=0.99 ps=6.33 w=6 l=2
X186 GND.t130 CS_BIAS.t58 VOUT.t4 GND.t129 sky130_fd_pr__nfet_01v8 ad=0.99 pd=6.33 as=0.99 ps=6.33 w=6 l=2
X187 VOUT.t13 CS_BIAS.t59 GND.t128 GND.t127 sky130_fd_pr__nfet_01v8 ad=0.99 pd=6.33 as=0.99 ps=6.33 w=6 l=2
X188 VOUT.t34 a_n7097_7899.t66 VDD.t125 VDD.t124 sky130_fd_pr__pfet_01v8 ad=1.155 pd=7.33 as=1.155 ps=7.33 w=7 l=1
X189 DIFFPAIR_BIAS.t1 DIFFPAIR_BIAS.t0 GND.t18 GND.t17 sky130_fd_pr__nfet_01v8 ad=2.34 pd=12.78 as=2.34 ps=12.78 w=6 l=2
X190 VOUT.t33 a_n7097_7899.t67 VDD.t123 VDD.t122 sky130_fd_pr__pfet_01v8 ad=1.155 pd=7.33 as=1.155 ps=7.33 w=7 l=1
X191 GND.t48 GND.t46 GND.t47 GND.t25 sky130_fd_pr__nfet_01v8 ad=2.34 pd=12.78 as=0 ps=0 w=6 l=2
X192 VOUT.t15 CS_BIAS.t60 GND.t126 GND.t125 sky130_fd_pr__nfet_01v8 ad=0.99 pd=6.33 as=2.34 ps=12.78 w=6 l=2
X193 a_n2154_8322.t1 a_n2433_10060.t45 VDD.t98 VDD.t97 sky130_fd_pr__pfet_01v8 ad=0.825 pd=5.33 as=0.825 ps=5.33 w=5 l=1
X194 CS_BIAS.t31 CS_BIAS.t30 GND.t124 GND.t122 sky130_fd_pr__nfet_01v8 ad=0.99 pd=6.33 as=0.99 ps=6.33 w=6 l=2
X195 VOUT.t32 a_n7097_7899.t68 VDD.t120 VDD.t119 sky130_fd_pr__pfet_01v8 ad=1.155 pd=7.33 as=1.155 ps=7.33 w=7 l=1
X196 VOUT.t31 a_n7097_7899.t69 VDD.t121 VDD.t110 sky130_fd_pr__pfet_01v8 ad=1.155 pd=7.33 as=2.73 ps=14.78 w=7 l=1
X197 VDD.t118 a_n7097_7899.t70 VOUT.t30 VDD.t116 sky130_fd_pr__pfet_01v8 ad=1.155 pd=7.33 as=1.155 ps=7.33 w=7 l=1
X198 GND.t45 GND.t42 GND.t44 GND.t43 sky130_fd_pr__nfet_01v8 ad=2.34 pd=12.78 as=0 ps=0 w=6 l=2
X199 VDD.t117 a_n7097_7899.t71 VOUT.t29 VDD.t116 sky130_fd_pr__pfet_01v8 ad=1.155 pd=7.33 as=1.155 ps=7.33 w=7 l=1
X200 a_n2433_10060.t22 a_n2433_10060.t21 a_n2511_10256.t9 VDD.t17 sky130_fd_pr__pfet_01v8 ad=0.825 pd=5.33 as=0.825 ps=5.33 w=5 l=1
X201 VOUT.t86 CS_BIAS.t61 GND.t123 GND.t122 sky130_fd_pr__nfet_01v8 ad=0.99 pd=6.33 as=0.99 ps=6.33 w=6 l=2
X202 VOUT.t16 CS_BIAS.t62 GND.t121 GND.t120 sky130_fd_pr__nfet_01v8 ad=0.99 pd=6.33 as=0.99 ps=6.33 w=6 l=2
X203 VDD.t24 VDD.t21 VDD.t23 VDD.t22 sky130_fd_pr__pfet_01v8 ad=2.73 pd=14.78 as=0 ps=0 w=7 l=1
X204 GND.t41 GND.t38 GND.t40 GND.t39 sky130_fd_pr__nfet_01v8 ad=2.34 pd=12.78 as=0 ps=0 w=6 l=2
X205 VOUT.t28 a_n7097_7899.t72 VDD.t115 VDD.t114 sky130_fd_pr__pfet_01v8 ad=1.155 pd=7.33 as=1.155 ps=7.33 w=7 l=1
X206 GND.t37 GND.t34 GND.t36 GND.t35 sky130_fd_pr__nfet_01v8 ad=2.34 pd=12.78 as=0 ps=0 w=6 l=1
X207 GND.t30 GND.t28 VN.t0 GND.t29 sky130_fd_pr__nfet_01v8 ad=0.165 pd=1.33 as=0.39 ps=2.78 w=1 l=0.5
X208 a_n2154_8322.t0 a_n2433_10060.t46 VDD.t189 VDD.t188 sky130_fd_pr__pfet_01v8 ad=1.95 pd=10.78 as=0.825 ps=5.33 w=5 l=1
X209 VDD.t113 a_n7097_7899.t73 VOUT.t27 VDD.t112 sky130_fd_pr__pfet_01v8 ad=1.155 pd=7.33 as=1.155 ps=7.33 w=7 l=1
X210 GND.t119 CS_BIAS.t63 VOUT.t24 GND.t118 sky130_fd_pr__nfet_01v8 ad=0.99 pd=6.33 as=0.99 ps=6.33 w=6 l=2
X211 a_n2433_10060.t20 a_n2433_10060.t19 a_n2511_10256.t8 VDD.t9 sky130_fd_pr__pfet_01v8 ad=1.95 pd=10.78 as=0.825 ps=5.33 w=5 l=1
X212 VOUT.t26 a_n7097_7899.t74 VDD.t111 VDD.t110 sky130_fd_pr__pfet_01v8 ad=1.155 pd=7.33 as=2.73 ps=14.78 w=7 l=1
X213 a_n1455_n3628.t12 VN.t12 a_n7097_7899.t8 GND.t5 sky130_fd_pr__nfet_01v8 ad=0.99 pd=6.33 as=0.99 ps=6.33 w=6 l=1
X214 VDD.t109 a_n7097_7899.t75 VOUT.t25 VDD.t108 sky130_fd_pr__pfet_01v8 ad=1.155 pd=7.33 as=1.155 ps=7.33 w=7 l=1
X215 CS_BIAS.t13 CS_BIAS.t12 GND.t117 GND.t116 sky130_fd_pr__nfet_01v8 ad=0.99 pd=6.33 as=0.99 ps=6.33 w=6 l=2
X216 a_n2433_10060.t6 VP.t12 a_n1455_n3628.t10 GND.t8 sky130_fd_pr__nfet_01v8 ad=0.99 pd=6.33 as=0.99 ps=6.33 w=6 l=1
X217 a_n7097_7899.t0 a_n2433_10060.t47 a_n2154_8322.t8 VDD.t0 sky130_fd_pr__pfet_01v8 ad=0.825 pd=5.33 as=0.825 ps=5.33 w=5 l=1
X218 GND.t33 GND.t31 VP.t0 GND.t32 sky130_fd_pr__nfet_01v8 ad=0.165 pd=1.33 as=0.165 ps=1.33 w=1 l=0.5
X219 GND.t27 GND.t24 GND.t26 GND.t25 sky130_fd_pr__nfet_01v8 ad=2.34 pd=12.78 as=0 ps=0 w=6 l=2
R0 a_n7097_7899.n168 a_n7097_7899.t69 223.136
R1 a_n7097_7899.n156 a_n7097_7899.t45 223.136
R2 a_n7097_7899.n145 a_n7097_7899.t74 223.136
R3 a_n7097_7899.n129 a_n7097_7899.t62 223.136
R4 a_n7097_7899.n114 a_n7097_7899.t34 223.136
R5 a_n7097_7899.n100 a_n7097_7899.t65 223.136
R6 a_n7097_7899.n11 a_n7097_7899.t27 223.097
R7 a_n7097_7899.n10 a_n7097_7899.t33 223.097
R8 a_n7097_7899.n9 a_n7097_7899.t64 223.097
R9 a_n7097_7899.n138 a_n7097_7899.t42 207.983
R10 a_n7097_7899.n123 a_n7097_7899.t16 207.983
R11 a_n7097_7899.n109 a_n7097_7899.t48 207.983
R12 a_n7097_7899.n174 a_n7097_7899.t37 168.701
R13 a_n7097_7899.n173 a_n7097_7899.t70 168.701
R14 a_n7097_7899.n164 a_n7097_7899.t19 168.701
R15 a_n7097_7899.n170 a_n7097_7899.t31 168.701
R16 a_n7097_7899.n169 a_n7097_7899.t63 168.701
R17 a_n7097_7899.n165 a_n7097_7899.t73 168.701
R18 a_n7097_7899.n166 a_n7097_7899.t26 168.701
R19 a_n7097_7899.n167 a_n7097_7899.t39 168.701
R20 a_n7097_7899.n162 a_n7097_7899.t67 168.701
R21 a_n7097_7899.n161 a_n7097_7899.t41 168.701
R22 a_n7097_7899.n152 a_n7097_7899.t18 168.701
R23 a_n7097_7899.n158 a_n7097_7899.t55 168.701
R24 a_n7097_7899.n157 a_n7097_7899.t25 168.701
R25 a_n7097_7899.n153 a_n7097_7899.t59 168.701
R26 a_n7097_7899.n154 a_n7097_7899.t40 168.701
R27 a_n7097_7899.n155 a_n7097_7899.t17 168.701
R28 a_n7097_7899.n151 a_n7097_7899.t38 168.701
R29 a_n7097_7899.n150 a_n7097_7899.t71 168.701
R30 a_n7097_7899.n141 a_n7097_7899.t50 168.701
R31 a_n7097_7899.n149 a_n7097_7899.t22 168.701
R32 a_n7097_7899.n148 a_n7097_7899.t57 168.701
R33 a_n7097_7899.n142 a_n7097_7899.t29 168.701
R34 a_n7097_7899.n143 a_n7097_7899.t68 168.701
R35 a_n7097_7899.n144 a_n7097_7899.t49 168.701
R36 a_n7097_7899.n128 a_n7097_7899.t53 168.701
R37 a_n7097_7899.n127 a_n7097_7899.t43 168.701
R38 a_n7097_7899.n126 a_n7097_7899.t28 168.701
R39 a_n7097_7899.n132 a_n7097_7899.t58 168.701
R40 a_n7097_7899.n133 a_n7097_7899.t47 168.701
R41 a_n7097_7899.n23 a_n7097_7899.t35 168.701
R42 a_n7097_7899.n135 a_n7097_7899.t24 168.701
R43 a_n7097_7899.n136 a_n7097_7899.t52 168.701
R44 a_n7097_7899.n113 a_n7097_7899.t60 168.701
R45 a_n7097_7899.n112 a_n7097_7899.t21 168.701
R46 a_n7097_7899.n111 a_n7097_7899.t44 168.701
R47 a_n7097_7899.n117 a_n7097_7899.t75 168.701
R48 a_n7097_7899.n118 a_n7097_7899.t36 168.701
R49 a_n7097_7899.n25 a_n7097_7899.t61 168.701
R50 a_n7097_7899.n120 a_n7097_7899.t23 168.701
R51 a_n7097_7899.n121 a_n7097_7899.t51 168.701
R52 a_n7097_7899.n99 a_n7097_7899.t30 168.701
R53 a_n7097_7899.n98 a_n7097_7899.t54 168.701
R54 a_n7097_7899.n97 a_n7097_7899.t72 168.701
R55 a_n7097_7899.n103 a_n7097_7899.t46 168.701
R56 a_n7097_7899.n104 a_n7097_7899.t66 168.701
R57 a_n7097_7899.n27 a_n7097_7899.t32 168.701
R58 a_n7097_7899.n106 a_n7097_7899.t56 168.701
R59 a_n7097_7899.n107 a_n7097_7899.t20 168.701
R60 a_n7097_7899.n19 a_n7097_7899.n0 39.6376
R61 a_n7097_7899.n5 a_n7097_7899.n0 39.7274
R62 a_n7097_7899.n29 a_n7097_7899.n0 68.6201
R63 a_n7097_7899.n20 a_n7097_7899.n0 39.6373
R64 a_n7097_7899.n171 a_n7097_7899.n0 161.3
R65 a_n7097_7899.n1 a_n7097_7899.n172 161.3
R66 a_n7097_7899.n21 a_n7097_7899.n1 39.7274
R67 a_n7097_7899.n22 a_n7097_7899.n1 39.6376
R68 a_n7097_7899.n15 a_n7097_7899.n2 39.6376
R69 a_n7097_7899.n6 a_n7097_7899.n2 39.7274
R70 a_n7097_7899.n30 a_n7097_7899.n2 68.6201
R71 a_n7097_7899.n16 a_n7097_7899.n2 39.6373
R72 a_n7097_7899.n159 a_n7097_7899.n2 161.3
R73 a_n7097_7899.n3 a_n7097_7899.n160 161.3
R74 a_n7097_7899.n17 a_n7097_7899.n3 39.7274
R75 a_n7097_7899.n18 a_n7097_7899.n3 39.6376
R76 a_n7097_7899.n35 a_n7097_7899.n33 71.8318
R77 a_n7097_7899.n34 a_n7097_7899.n146 161.3
R78 a_n7097_7899.n147 a_n7097_7899.n34 161.3
R79 a_n7097_7899.n32 a_n7097_7899.n7 74.8341
R80 a_n7097_7899.n31 a_n7097_7899.n4 68.6201
R81 a_n7097_7899.n12 a_n7097_7899.n4 39.6373
R82 a_n7097_7899.n4 a_n7097_7899.n8 68.6201
R83 a_n7097_7899.n13 a_n7097_7899.n4 39.7274
R84 a_n7097_7899.n14 a_n7097_7899.n4 39.6376
R85 a_n7097_7899.n137 a_n7097_7899.n53 161.3
R86 a_n7097_7899.n50 a_n7097_7899.n53 161.3
R87 a_n7097_7899.n52 a_n7097_7899.n51 71.4497
R88 a_n7097_7899.n49 a_n7097_7899.n48 68.7078
R89 a_n7097_7899.n24 a_n7097_7899.n23 11.426
R90 a_n7097_7899.n47 a_n7097_7899.n24 74.9385
R91 a_n7097_7899.n134 a_n7097_7899.n46 161.3
R92 a_n7097_7899.n43 a_n7097_7899.n46 161.3
R93 a_n7097_7899.n45 a_n7097_7899.n44 71.6402
R94 a_n7097_7899.n42 a_n7097_7899.n41 68.6201
R95 a_n7097_7899.n38 a_n7097_7899.n40 74.8341
R96 a_n7097_7899.n131 a_n7097_7899.n39 161.3
R97 a_n7097_7899.n39 a_n7097_7899.n130 161.3
R98 a_n7097_7899.n37 a_n7097_7899.n36 71.8318
R99 a_n7097_7899.n122 a_n7097_7899.n71 161.3
R100 a_n7097_7899.n68 a_n7097_7899.n71 161.3
R101 a_n7097_7899.n70 a_n7097_7899.n69 71.4497
R102 a_n7097_7899.n67 a_n7097_7899.n66 68.7078
R103 a_n7097_7899.n26 a_n7097_7899.n25 11.426
R104 a_n7097_7899.n65 a_n7097_7899.n26 74.9385
R105 a_n7097_7899.n119 a_n7097_7899.n64 161.3
R106 a_n7097_7899.n61 a_n7097_7899.n64 161.3
R107 a_n7097_7899.n63 a_n7097_7899.n62 71.6402
R108 a_n7097_7899.n60 a_n7097_7899.n59 68.6201
R109 a_n7097_7899.n56 a_n7097_7899.n58 74.8341
R110 a_n7097_7899.n116 a_n7097_7899.n57 161.3
R111 a_n7097_7899.n57 a_n7097_7899.n115 161.3
R112 a_n7097_7899.n55 a_n7097_7899.n54 71.8318
R113 a_n7097_7899.n108 a_n7097_7899.n89 161.3
R114 a_n7097_7899.n86 a_n7097_7899.n89 161.3
R115 a_n7097_7899.n88 a_n7097_7899.n87 71.4497
R116 a_n7097_7899.n85 a_n7097_7899.n84 68.7078
R117 a_n7097_7899.n28 a_n7097_7899.n27 11.426
R118 a_n7097_7899.n83 a_n7097_7899.n28 74.9385
R119 a_n7097_7899.n105 a_n7097_7899.n82 161.3
R120 a_n7097_7899.n79 a_n7097_7899.n82 161.3
R121 a_n7097_7899.n81 a_n7097_7899.n80 71.6402