* NGSPICE file created from tg_sample_0008.ext - technology: sky130A

.subckt tg_sample_0008 VIN VGN VGP VSS VCC VOUT
X0 VCC.t18 VCC.t16 VCC.t17 VCC.t6 sky130_fd_pr__pfet_01v8 ad=3.4788 pd=18.62 as=0 ps=0 w=8.92 l=3.54
X1 VCC.t15 VCC.t13 VCC.t14 VCC.t10 sky130_fd_pr__pfet_01v8 ad=3.4788 pd=18.62 as=0 ps=0 w=8.92 l=3.54
X2 VOUT.t33 VOUT.t31 VOUT.t32 VCC.t3 sky130_fd_pr__pfet_01v8 ad=3.4788 pd=18.62 as=0 ps=0 w=8.92 l=3.54
X3 VOUT.t5 VGN.t0 VOUT.t5 VSS.t15 sky130_fd_pr__nfet_01v8 ad=3.15315 pd=19.44 as=0 ps=0 w=19.11 l=0.22
X4 VOUT.t4 VGN.t1 VOUT.t4 VSS.t18 sky130_fd_pr__nfet_01v8 ad=3.15315 pd=19.44 as=0 ps=0 w=19.11 l=0.22
X5 VSS.t13 VSS.t11 VSS.t12 VSS.t8 sky130_fd_pr__nfet_01v8 ad=7.4529 pd=39 as=0 ps=0 w=19.11 l=0.22
X6 VOUT.t3 VGN.t2 VOUT.t2 VSS.t16 sky130_fd_pr__nfet_01v8 ad=7.4529 pd=39 as=0 ps=0 w=19.11 l=0.22
X7 VOUT.t30 VOUT.t29 VOUT.t30 VCC.t0 sky130_fd_pr__pfet_01v8 ad=1.4718 pd=9.25 as=0 ps=0 w=8.92 l=3.54
X8 VCC.t12 VCC.t9 VCC.t11 VCC.t10 sky130_fd_pr__pfet_01v8 ad=3.4788 pd=18.62 as=0 ps=0 w=8.92 l=3.54
X9 VOUT.t1 VGN.t3 VOUT.t1 VSS.t14 sky130_fd_pr__nfet_01v8 ad=3.15315 pd=19.44 as=0 ps=0 w=19.11 l=0.22
X10 VSS.t10 VSS.t7 VSS.t9 VSS.t8 sky130_fd_pr__nfet_01v8 ad=7.4529 pd=39 as=0 ps=0 w=19.11 l=0.22
X11 VOUT.t28 VOUT.t27 VOUT.t28 VCC.t4 sky130_fd_pr__pfet_01v8 ad=1.4718 pd=9.25 as=0 ps=0 w=8.92 l=3.54
X12 VOUT.t6 VGN.t4 VOUT.t6 VSS.t18 sky130_fd_pr__nfet_01v8 ad=3.15315 pd=19.44 as=0 ps=0 w=19.11 l=0.22
X13 VOUT.t26 VOUT.t25 VOUT.t26 VCC.t0 sky130_fd_pr__pfet_01v8 ad=1.4718 pd=9.25 as=0 ps=0 w=8.92 l=3.54
X14 VOUT.t0 VGN.t5 VOUT.t0 VSS.t17 sky130_fd_pr__nfet_01v8 ad=3.15315 pd=19.44 as=0 ps=0 w=19.11 l=0.22
X15 VOUT.t8 VGN.t6 VOUT.t8 VSS.t17 sky130_fd_pr__nfet_01v8 ad=3.15315 pd=19.44 as=0 ps=0 w=19.11 l=0.22
X16 VOUT.t24 VOUT.t23 VOUT.t24 VCC.t4 sky130_fd_pr__pfet_01v8 ad=1.4718 pd=9.25 as=0 ps=0 w=8.92 l=3.54
X17 VOUT.t22 VOUT.t21 VOUT.t22 VCC.t1 sky130_fd_pr__pfet_01v8 ad=1.4718 pd=9.25 as=0 ps=0 w=8.92 l=3.54
X18 VOUT.t20 VOUT.t19 VOUT.t20 VCC.t2 sky130_fd_pr__pfet_01v8 ad=1.4718 pd=9.25 as=0 ps=0 w=8.92 l=3.54
X19 VSS.t6 VSS.t4 VSS.t5 VSS.t1 sky130_fd_pr__nfet_01v8 ad=7.4529 pd=39 as=0 ps=0 w=19.11 l=0.22
X20 VOUT.t11 VGN.t7 VOUT.t10 VSS.t16 sky130_fd_pr__nfet_01v8 ad=7.4529 pd=39 as=0 ps=0 w=19.11 l=0.22
X21 VCC.t8 VCC.t5 VCC.t7 VCC.t6 sky130_fd_pr__pfet_01v8 ad=3.4788 pd=18.62 as=0 ps=0 w=8.92 l=3.54
X22 VSS.t3 VSS.t0 VSS.t2 VSS.t1 sky130_fd_pr__nfet_01v8 ad=7.4529 pd=39 as=0 ps=0 w=19.11 l=0.22
X23 VOUT.t18 VOUT.t16 VOUT.t17 VCC.t3 sky130_fd_pr__pfet_01v8 ad=3.4788 pd=18.62 as=0 ps=0 w=8.92 l=3.54
X24 VOUT.t7 VGN.t8 VOUT.t7 VSS.t15 sky130_fd_pr__nfet_01v8 ad=3.15315 pd=19.44 as=0 ps=0 w=19.11 l=0.22
X25 VOUT.t15 VOUT.t14 VOUT.t15 VCC.t1 sky130_fd_pr__pfet_01v8 ad=1.4718 pd=9.25 as=0 ps=0 w=8.92 l=3.54
X26 VOUT.t13 VOUT.t12 VOUT.t13 VCC.t2 sky130_fd_pr__pfet_01v8 ad=1.4718 pd=9.25 as=0 ps=0 w=8.92 l=3.54
X27 VOUT.t9 VGN.t9 VOUT.t9 VSS.t14 sky130_fd_pr__nfet_01v8 ad=3.15315 pd=19.44 as=0 ps=0 w=19.11 l=0.22
R0 VCC.n717 VCC.n39 357.074
R1 VCC.n715 VCC.n43 357.074
R2 VCC.n346 VCC.n172 357.074
R3 VCC.n344 VCC.n174 357.074
R4 VCC.n579 VCC.t16 269.856
R5 VCC.n646 VCC.t5 269.856
R6 VCC.n196 VCC.t13 269.856
R7 VCC.n177 VCC.t9 269.856
R8 VCC.n715 VCC.n714 185
R9 VCC.n716 VCC.n715 185
R10 VCC.n44 VCC.n42 185
R11 VCC.n42 VCC.n40 185
R12 VCC.n541 VCC.n540 185
R13 VCC.n540 VCC.n539 185
R14 VCC.n47 VCC.n46 185
R15 VCC.n537 VCC.n47 185
R16 VCC.n535 VCC.n534 185
R17 VCC.n536 VCC.n535 185
R18 VCC.n49 VCC.n48 185
R19 VCC.n526 VCC.n48 185
R20 VCC.n530 VCC.n529 185
R21 VCC.n529 VCC.n528 185
R22 VCC.n52 VCC.n51 185
R23 VCC.n525 VCC.n52 185
R24 VCC.n523 VCC.n522 185
R25 VCC.n524 VCC.n523 185
R26 VCC.n55 VCC.n54 185
R27 VCC.n54 VCC.n53 185
R28 VCC.n518 VCC.n517 185
R29 VCC.n517 VCC.n516 185
R30 VCC.n58 VCC.n57 185
R31 VCC.n514 VCC.n58 185
R32 VCC.n512 VCC.n511 185
R33 VCC.n513 VCC.n512 185
R34 VCC.n61 VCC.n60 185
R35 VCC.n60 VCC.n59 185
R36 VCC.n507 VCC.n506 185
R37 VCC.n506 VCC.n505 185
R38 VCC.n64 VCC.n63 185
R39 VCC.n503 VCC.n64 185
R40 VCC.n501 VCC.n500 185
R41 VCC.n502 VCC.n501 185
R42 VCC.n67 VCC.n66 185
R43 VCC.n66 VCC.n65 185
R44 VCC.n496 VCC.n495 185
R45 VCC.n495 VCC.n494 185
R46 VCC.n70 VCC.n69 185
R47 VCC.n492 VCC.n70 185
R48 VCC.n490 VCC.n489 185
R49 VCC.n491 VCC.n490 185
R50 VCC.n73 VCC.n72 185
R51 VCC.n72 VCC.n71 185
R52 VCC.n485 VCC.n484 185
R53 VCC.n484 VCC.n483 185
R54 VCC.n76 VCC.n75 185
R55 VCC.n481 VCC.n76 185
R56 VCC.n479 VCC.n478 185
R57 VCC.n480 VCC.n479 185
R58 VCC.n79 VCC.n78 185
R59 VCC.n78 VCC.n77 185
R60 VCC.n474 VCC.n473 185
R61 VCC.n473 VCC.n472 185
R62 VCC.n82 VCC.n81 185
R63 VCC.n470 VCC.n82 185
R64 VCC.n468 VCC.n467 185
R65 VCC.n469 VCC.n468 185
R66 VCC.n85 VCC.n84 185
R67 VCC.n84 VCC.n83 185
R68 VCC.n463 VCC.n462 185
R69 VCC.n462 VCC.n461 185
R70 VCC.n88 VCC.n87 185
R71 VCC.n89 VCC.n88 185
R72 VCC.n450 VCC.n449 185
R73 VCC.n451 VCC.n450 185
R74 VCC.n97 VCC.n96 185
R75 VCC.n452 VCC.n96 185
R76 VCC.n445 VCC.n444 185
R77 VCC.n444 VCC.n95 185
R78 VCC.n443 VCC.n99 185
R79 VCC.n443 VCC.n442 185
R80 VCC.n109 VCC.n100 185
R81 VCC.n101 VCC.n100 185
R82 VCC.n433 VCC.n432 185
R83 VCC.n434 VCC.n433 185
R84 VCC.n108 VCC.n107 185
R85 VCC.n114 VCC.n107 185
R86 VCC.n427 VCC.n426 185
R87 VCC.n426 VCC.n425 185
R88 VCC.n112 VCC.n111 185
R89 VCC.n113 VCC.n112 185
R90 VCC.n416 VCC.n415 185
R91 VCC.n417 VCC.n416 185
R92 VCC.n122 VCC.n121 185
R93 VCC.n121 VCC.n120 185
R94 VCC.n411 VCC.n410 185
R95 VCC.n410 VCC.n409 185
R96 VCC.n125 VCC.n124 185
R97 VCC.n126 VCC.n125 185
R98 VCC.n400 VCC.n399 185
R99 VCC.n401 VCC.n400 185
R100 VCC.n134 VCC.n133 185
R101 VCC.n133 VCC.n132 185
R102 VCC.n395 VCC.n394 185
R103 VCC.n394 VCC.n393 185
R104 VCC.n137 VCC.n136 185
R105 VCC.n138 VCC.n137 185
R106 VCC.n384 VCC.n383 185
R107 VCC.n385 VCC.n384 185
R108 VCC.n146 VCC.n145 185
R109 VCC.n145 VCC.n144 185
R110 VCC.n379 VCC.n378 185
R111 VCC.n378 VCC.n377 185
R112 VCC.n149 VCC.n148 185
R113 VCC.n150 VCC.n149 185
R114 VCC.n368 VCC.n367 185
R115 VCC.n369 VCC.n368 185
R116 VCC.n158 VCC.n157 185
R117 VCC.n157 VCC.n156 185
R118 VCC.n363 VCC.n362 185
R119 VCC.n362 VCC.n361 185
R120 VCC.n161 VCC.n160 185
R121 VCC.n162 VCC.n161 185
R122 VCC.n352 VCC.n351 185
R123 VCC.n353 VCC.n352 185
R124 VCC.n170 VCC.n169 185
R125 VCC.n169 VCC.n168 185
R126 VCC.n347 VCC.n346 185
R127 VCC.n346 VCC.n345 185
R128 VCC.n344 VCC.n343 185
R129 VCC.n345 VCC.n344 185
R130 VCC.n167 VCC.n166 185
R131 VCC.n168 VCC.n167 185
R132 VCC.n355 VCC.n354 185
R133 VCC.n354 VCC.n353 185
R134 VCC.n164 VCC.n163 185
R135 VCC.n163 VCC.n162 185
R136 VCC.n360 VCC.n359 185
R137 VCC.n361 VCC.n360 185
R138 VCC.n155 VCC.n154 185
R139 VCC.n156 VCC.n155 185
R140 VCC.n371 VCC.n370 185
R141 VCC.n370 VCC.n369 185
R142 VCC.n152 VCC.n151 185
R143 VCC.n151 VCC.n150 185
R144 VCC.n376 VCC.n375 185
R145 VCC.n377 VCC.n376 185
R146 VCC.n143 VCC.n142 185
R147 VCC.n144 VCC.n143 185
R148 VCC.n387 VCC.n386 185
R149 VCC.n386 VCC.n385 185
R150 VCC.n140 VCC.n139 185
R151 VCC.n139 VCC.n138 185
R152 VCC.n392 VCC.n391 185
R153 VCC.n393 VCC.n392 185
R154 VCC.n131 VCC.n130 185
R155 VCC.n132 VCC.n131 185
R156 VCC.n403 VCC.n402 185
R157 VCC.n402 VCC.n401 185
R158 VCC.n128 VCC.n127 185
R159 VCC.n127 VCC.n126 185
R160 VCC.n408 VCC.n407 185
R161 VCC.n409 VCC.n408 185
R162 VCC.n119 VCC.n118 185
R163 VCC.n120 VCC.n119 185
R164 VCC.n419 VCC.n418 185
R165 VCC.n418 VCC.n417 185
R166 VCC.n116 VCC.n115 185
R167 VCC.n115 VCC.n113 185
R168 VCC.n424 VCC.n423 185
R169 VCC.n425 VCC.n424 185
R170 VCC.n106 VCC.n105 185
R171 VCC.n114 VCC.n106 185
R172 VCC.n436 VCC.n435 185
R173 VCC.n435 VCC.n434 185
R174 VCC.n103 VCC.n102 185
R175 VCC.n102 VCC.n101 185
R176 VCC.n441 VCC.n440 185
R177 VCC.n442 VCC.n441 185
R178 VCC.n94 VCC.n93 185
R179 VCC.n95 VCC.n94 185
R180 VCC.n454 VCC.n453 185
R181 VCC.n453 VCC.n452 185
R182 VCC.n91 VCC.n90 185
R183 VCC.n451 VCC.n90 185
R184 VCC.n459 VCC.n458 185
R185 VCC.n459 VCC.n89 185
R186 VCC.n460 VCC.n2 185
R187 VCC.n461 VCC.n460 185
R188 VCC.n761 VCC.n3 185
R189 VCC.n83 VCC.n3 185
R190 VCC.n760 VCC.n4 185
R191 VCC.n469 VCC.n4 185
R192 VCC.n759 VCC.n5 185
R193 VCC.n470 VCC.n5 185
R194 VCC.n471 VCC.n6 185
R195 VCC.n472 VCC.n471 185
R196 VCC.n755 VCC.n8 185
R197 VCC.n77 VCC.n8 185
R198 VCC.n754 VCC.n9 185
R199 VCC.n480 VCC.n9 185
R200 VCC.n753 VCC.n10 185
R201 VCC.n481 VCC.n10 185
R202 VCC.n482 VCC.n11 185
R203 VCC.n483 VCC.n482 185
R204 VCC.n749 VCC.n13 185
R205 VCC.n71 VCC.n13 185
R206 VCC.n748 VCC.n14 185
R207 VCC.n491 VCC.n14 185
R208 VCC.n747 VCC.n15 185
R209 VCC.n492 VCC.n15 185
R210 VCC.n493 VCC.n16 185
R211 VCC.n494 VCC.n493 185
R212 VCC.n743 VCC.n18 185
R213 VCC.n65 VCC.n18 185
R214 VCC.n742 VCC.n19 185
R215 VCC.n502 VCC.n19 185
R216 VCC.n741 VCC.n20 185
R217 VCC.n503 VCC.n20 185
R218 VCC.n504 VCC.n21 185
R219 VCC.n505 VCC.n504 185
R220 VCC.n737 VCC.n23 185
R221 VCC.n59 VCC.n23 185
R222 VCC.n736 VCC.n24 185
R223 VCC.n513 VCC.n24 185
R224 VCC.n735 VCC.n25 185
R225 VCC.n514 VCC.n25 185
R226 VCC.n515 VCC.n26 185
R227 VCC.n516 VCC.n515 185
R228 VCC.n731 VCC.n28 185
R229 VCC.n53 VCC.n28 185
R230 VCC.n730 VCC.n29 185
R231 VCC.n524 VCC.n29 185
R232 VCC.n729 VCC.n30 185
R233 VCC.n525 VCC.n30 185
R234 VCC.n527 VCC.n31 185
R235 VCC.n528 VCC.n527 185
R236 VCC.n725 VCC.n33 185
R237 VCC.n526 VCC.n33 185
R238 VCC.n724 VCC.n34 185
R239 VCC.n536 VCC.n34 185
R240 VCC.n723 VCC.n35 185
R241 VCC.n537 VCC.n35 185
R242 VCC.n538 VCC.n36 185
R243 VCC.n539 VCC.n538 185
R244 VCC.n719 VCC.n38 185
R245 VCC.n40 VCC.n38 185
R246 VCC.n718 VCC.n717 185
R247 VCC.n717 VCC.n716 185
R248 VCC.n712 VCC.n43 185
R249 VCC.n711 VCC.n710 185
R250 VCC.n708 VCC.n544 185
R251 VCC.n706 VCC.n705 185
R252 VCC.n704 VCC.n545 185
R253 VCC.n703 VCC.n702 185
R254 VCC.n700 VCC.n546 185
R255 VCC.n698 VCC.n697 185
R256 VCC.n696 VCC.n547 185
R257 VCC.n695 VCC.n694 185
R258 VCC.n692 VCC.n548 185
R259 VCC.n690 VCC.n689 185
R260 VCC.n688 VCC.n549 185
R261 VCC.n687 VCC.n686 185
R262 VCC.n684 VCC.n550 185
R263 VCC.n682 VCC.n681 185
R264 VCC.n680 VCC.n551 185
R265 VCC.n679 VCC.n678 185
R266 VCC.n676 VCC.n552 185
R267 VCC.n674 VCC.n673 185
R268 VCC.n672 VCC.n553 185
R269 VCC.n671 VCC.n670 185
R270 VCC.n668 VCC.n554 185
R271 VCC.n666 VCC.n665 185
R272 VCC.n664 VCC.n555 185
R273 VCC.n663 VCC.n662 185
R274 VCC.n660 VCC.n556 185
R275 VCC.n658 VCC.n657 185
R276 VCC.n656 VCC.n557 185
R277 VCC.n655 VCC.n654 185
R278 VCC.n652 VCC.n558 185
R279 VCC.n650 VCC.n649 185
R280 VCC.n645 VCC.n559 185
R281 VCC.n644 VCC.n643 185
R282 VCC.n641 VCC.n560 185
R283 VCC.n639 VCC.n638 185
R284 VCC.n637 VCC.n561 185
R285 VCC.n636 VCC.n635 185
R286 VCC.n633 VCC.n562 185
R287 VCC.n631 VCC.n630 185
R288 VCC.n629 VCC.n563 185
R289 VCC.n628 VCC.n627 185
R290 VCC.n625 VCC.n564 185
R291 VCC.n623 VCC.n622 185
R292 VCC.n621 VCC.n565 185
R293 VCC.n620 VCC.n619 185
R294 VCC.n617 VCC.n566 185
R295 VCC.n615 VCC.n614 185
R296 VCC.n613 VCC.n567 185
R297 VCC.n612 VCC.n611 185
R298 VCC.n609 VCC.n568 185
R299 VCC.n607 VCC.n606 185
R300 VCC.n605 VCC.n569 185
R301 VCC.n604 VCC.n603 185
R302 VCC.n601 VCC.n570 185
R303 VCC.n599 VCC.n598 185
R304 VCC.n597 VCC.n571 185
R305 VCC.n596 VCC.n595 185
R306 VCC.n593 VCC.n572 185
R307 VCC.n591 VCC.n590 185
R308 VCC.n589 VCC.n573 185
R309 VCC.n588 VCC.n587 185
R310 VCC.n585 VCC.n574 185
R311 VCC.n583 VCC.n582 185
R312 VCC.n578 VCC.n576 185
R313 VCC.n577 VCC.n39 185
R314 VCC.n341 VCC.n174 185
R315 VCC.n340 VCC.n339 185
R316 VCC.n337 VCC.n175 185
R317 VCC.n337 VCC.n173 185
R318 VCC.n336 VCC.n335 185
R319 VCC.n334 VCC.n333 185
R320 VCC.n332 VCC.n180 185
R321 VCC.n330 VCC.n329 185
R322 VCC.n328 VCC.n181 185
R323 VCC.n327 VCC.n326 185
R324 VCC.n324 VCC.n182 185
R325 VCC.n322 VCC.n321 185
R326 VCC.n320 VCC.n183 185
R327 VCC.n319 VCC.n318 185
R328 VCC.n316 VCC.n184 185
R329 VCC.n314 VCC.n313 185
R330 VCC.n312 VCC.n185 185
R331 VCC.n311 VCC.n310 185
R332 VCC.n308 VCC.n186 185
R333 VCC.n306 VCC.n305 185
R334 VCC.n304 VCC.n187 185
R335 VCC.n303 VCC.n302 185
R336 VCC.n300 VCC.n188 185
R337 VCC.n298 VCC.n297 185
R338 VCC.n296 VCC.n189 185
R339 VCC.n295 VCC.n294 185
R340 VCC.n292 VCC.n190 185
R341 VCC.n290 VCC.n289 185
R342 VCC.n288 VCC.n191 185
R343 VCC.n287 VCC.n286 185
R344 VCC.n284 VCC.n192 185
R345 VCC.n282 VCC.n281 185
R346 VCC.n280 VCC.n193 185
R347 VCC.n279 VCC.n278 185
R348 VCC.n276 VCC.n194 185
R349 VCC.n274 VCC.n273 185
R350 VCC.n271 VCC.n195 185
R351 VCC.n270 VCC.n269 185
R352 VCC.n267 VCC.n198 185
R353 VCC.n265 VCC.n264 185
R354 VCC.n263 VCC.n199 185
R355 VCC.n262 VCC.n261 185
R356 VCC.n259 VCC.n200 185
R357 VCC.n257 VCC.n256 185
R358 VCC.n255 VCC.n201 185
R359 VCC.n254 VCC.n253 185
R360 VCC.n251 VCC.n202 185
R361 VCC.n249 VCC.n248 185
R362 VCC.n247 VCC.n203 185
R363 VCC.n246 VCC.n245 185
R364 VCC.n243 VCC.n204 185
R365 VCC.n241 VCC.n240 185
R366 VCC.n239 VCC.n205 185
R367 VCC.n238 VCC.n237 185
R368 VCC.n235 VCC.n206 185
R369 VCC.n233 VCC.n232 185
R370 VCC.n231 VCC.n207 185
R371 VCC.n230 VCC.n229 185
R372 VCC.n227 VCC.n208 185
R373 VCC.n225 VCC.n224 185
R374 VCC.n223 VCC.n209 185
R375 VCC.n222 VCC.n221 185
R376 VCC.n219 VCC.n210 185
R377 VCC.n217 VCC.n216 185
R378 VCC.n215 VCC.n211 185
R379 VCC.n214 VCC.n213 185
R380 VCC.n172 VCC.n171 185
R381 VCC.n173 VCC.n172 185
R382 VCC.n579 VCC.t17 184.732
R383 VCC.n646 VCC.t7 184.732
R384 VCC.n196 VCC.t15 184.732
R385 VCC.n177 VCC.t12 184.732
R386 VCC.n346 VCC.n169 146.341
R387 VCC.n352 VCC.n169 146.341
R388 VCC.n352 VCC.n161 146.341
R389 VCC.n362 VCC.n161 146.341
R390 VCC.n362 VCC.n157 146.341
R391 VCC.n368 VCC.n157 146.341
R392 VCC.n368 VCC.n149 146.341
R393 VCC.n378 VCC.n149 146.341
R394 VCC.n378 VCC.n145 146.341
R395 VCC.n384 VCC.n145 146.341
R396 VCC.n384 VCC.n137 146.341
R397 VCC.n394 VCC.n137 146.341
R398 VCC.n394 VCC.n133 146.341
R399 VCC.n400 VCC.n133 146.341
R400 VCC.n400 VCC.n125 146.341
R401 VCC.n410 VCC.n125 146.341
R402 VCC.n410 VCC.n121 146.341
R403 VCC.n416 VCC.n121 146.341
R404 VCC.n416 VCC.n112 146.341
R405 VCC.n426 VCC.n112 146.341
R406 VCC.n426 VCC.n107 146.341
R407 VCC.n433 VCC.n107 146.341
R408 VCC.n433 VCC.n100 146.341
R409 VCC.n443 VCC.n100 146.341
R410 VCC.n444 VCC.n443 146.341
R411 VCC.n444 VCC.n96 146.341
R412 VCC.n450 VCC.n96 146.341
R413 VCC.n450 VCC.n88 146.341
R414 VCC.n462 VCC.n88 146.341
R415 VCC.n462 VCC.n84 146.341
R416 VCC.n468 VCC.n84 146.341
R417 VCC.n468 VCC.n82 146.341
R418 VCC.n473 VCC.n82 146.341
R419 VCC.n473 VCC.n78 146.341
R420 VCC.n479 VCC.n78 146.341
R421 VCC.n479 VCC.n76 146.341
R422 VCC.n484 VCC.n76 146.341
R423 VCC.n484 VCC.n72 146.341
R424 VCC.n490 VCC.n72 146.341
R425 VCC.n490 VCC.n70 146.341
R426 VCC.n495 VCC.n70 146.341
R427 VCC.n495 VCC.n66 146.341
R428 VCC.n501 VCC.n66 146.341
R429 VCC.n501 VCC.n64 146.341
R430 VCC.n506 VCC.n64 146.341
R431 VCC.n506 VCC.n60 146.341
R432 VCC.n512 VCC.n60 146.341
R433 VCC.n512 VCC.n58 146.341
R434 VCC.n517 VCC.n58 146.341
R435 VCC.n517 VCC.n54 146.341
R436 VCC.n523 VCC.n54 146.341
R437 VCC.n523 VCC.n52 146.341
R438 VCC.n529 VCC.n52 146.341
R439 VCC.n529 VCC.n48 146.341
R440 VCC.n535 VCC.n48 146.341
R441 VCC.n535 VCC.n47 146.341
R442 VCC.n540 VCC.n47 146.341
R443 VCC.n540 VCC.n42 146.341
R444 VCC.n715 VCC.n42 146.341
R445 VCC.n344 VCC.n167 146.341
R446 VCC.n354 VCC.n167 146.341
R447 VCC.n354 VCC.n163 146.341
R448 VCC.n360 VCC.n163 146.341
R449 VCC.n360 VCC.n155 146.341
R450 VCC.n370 VCC.n155 146.341
R451 VCC.n370 VCC.n151 146.341
R452 VCC.n376 VCC.n151 146.341
R453 VCC.n376 VCC.n143 146.341
R454 VCC.n386 VCC.n143 146.341
R455 VCC.n386 VCC.n139 146.341
R456 VCC.n392 VCC.n139 146.341
R457 VCC.n392 VCC.n131 146.341
R458 VCC.n402 VCC.n131 146.341
R459 VCC.n402 VCC.n127 146.341
R460 VCC.n408 VCC.n127 146.341
R461 VCC.n408 VCC.n119 146.341
R462 VCC.n418 VCC.n119 146.341
R463 VCC.n418 VCC.n115 146.341
R464 VCC.n424 VCC.n115 146.341
R465 VCC.n424 VCC.n106 146.341
R466 VCC.n435 VCC.n106 146.341
R467 VCC.n435 VCC.n102 146.341
R468 VCC.n441 VCC.n102 146.341
R469 VCC.n441 VCC.n94 146.341
R470 VCC.n453 VCC.n94 146.341
R471 VCC.n453 VCC.n90 146.341
R472 VCC.n459 VCC.n90 146.341
R473 VCC.n460 VCC.n459 146.341
R474 VCC.n460 VCC.n3 146.341
R475 VCC.n4 VCC.n3 146.341
R476 VCC.n5 VCC.n4 146.341
R477 VCC.n471 VCC.n5 146.341
R478 VCC.n471 VCC.n8 146.341
R479 VCC.n9 VCC.n8 146.341
R480 VCC.n10 VCC.n9 146.341
R481 VCC.n482 VCC.n10 146.341
R482 VCC.n482 VCC.n13 146.341
R483 VCC.n14 VCC.n13 146.341
R484 VCC.n15 VCC.n14 146.341
R485 VCC.n493 VCC.n15 146.341
R486 VCC.n493 VCC.n18 146.341
R487 VCC.n19 VCC.n18 146.341
R488 VCC.n20 VCC.n19 146.341
R489 VCC.n504 VCC.n20 146.341
R490 VCC.n504 VCC.n23 146.341
R491 VCC.n24 VCC.n23 146.341
R492 VCC.n25 VCC.n24 146.341
R493 VCC.n515 VCC.n25 146.341
R494 VCC.n515 VCC.n28 146.341
R495 VCC.n29 VCC.n28 146.341
R496 VCC.n30 VCC.n29 146.341
R497 VCC.n527 VCC.n30 146.341
R498 VCC.n527 VCC.n33 146.341
R499 VCC.n34 VCC.n33 146.341
R500 VCC.n35 VCC.n34 146.341
R501 VCC.n538 VCC.n35 146.341
R502 VCC.n538 VCC.n38 146.341
R503 VCC.n717 VCC.n38 146.341
R504 VCC.n580 VCC.t18 109.678
R505 VCC.n647 VCC.t8 109.678
R506 VCC.n197 VCC.t14 109.678
R507 VCC.n178 VCC.t11 109.678
R508 VCC.n583 VCC.n576 99.5127
R509 VCC.n587 VCC.n585 99.5127
R510 VCC.n591 VCC.n573 99.5127
R511 VCC.n595 VCC.n593 99.5127
R512 VCC.n599 VCC.n571 99.5127
R513 VCC.n603 VCC.n601 99.5127
R514 VCC.n607 VCC.n569 99.5127
R515 VCC.n611 VCC.n609 99.5127
R516 VCC.n615 VCC.n567 99.5127
R517 VCC.n619 VCC.n617 99.5127
R518 VCC.n623 VCC.n565 99.5127
R519 VCC.n627 VCC.n625 99.5127
R520 VCC.n631 VCC.n563 99.5127
R521 VCC.n635 VCC.n633 99.5127
R522 VCC.n639 VCC.n561 99.5127
R523 VCC.n643 VCC.n641 99.5127
R524 VCC.n650 VCC.n559 99.5127
R525 VCC.n654 VCC.n652 99.5127
R526 VCC.n658 VCC.n557 99.5127
R527 VCC.n662 VCC.n660 99.5127
R528 VCC.n666 VCC.n555 99.5127
R529 VCC.n670 VCC.n668 99.5127
R530 VCC.n674 VCC.n553 99.5127
R531 VCC.n678 VCC.n676 99.5127
R532 VCC.n682 VCC.n551 99.5127
R533 VCC.n686 VCC.n684 99.5127
R534 VCC.n690 VCC.n549 99.5127
R535 VCC.n694 VCC.n692 99.5127
R536 VCC.n698 VCC.n547 99.5127
R537 VCC.n702 VCC.n700 99.5127
R538 VCC.n706 VCC.n545 99.5127
R539 VCC.n710 VCC.n708 99.5127
R540 VCC.n339 VCC.n337 99.5127
R541 VCC.n337 VCC.n336 99.5127
R542 VCC.n333 VCC.n332 99.5127
R543 VCC.n330 VCC.n181 99.5127
R544 VCC.n326 VCC.n324 99.5127
R545 VCC.n322 VCC.n183 99.5127
R546 VCC.n318 VCC.n316 99.5127
R547 VCC.n314 VCC.n185 99.5127
R548 VCC.n310 VCC.n308 99.5127
R549 VCC.n306 VCC.n187 99.5127
R550 VCC.n302 VCC.n300 99.5127
R551 VCC.n298 VCC.n189 99.5127
R552 VCC.n294 VCC.n292 99.5127
R553 VCC.n290 VCC.n191 99.5127
R554 VCC.n286 VCC.n284 99.5127
R555 VCC.n282 VCC.n193 99.5127
R556 VCC.n278 VCC.n276 99.5127
R557 VCC.n274 VCC.n195 99.5127
R558 VCC.n269 VCC.n267 99.5127
R559 VCC.n265 VCC.n199 99.5127
R560 VCC.n261 VCC.n259 99.5127
R561 VCC.n257 VCC.n201 99.5127
R562 VCC.n253 VCC.n251 99.5127
R563 VCC.n249 VCC.n203 99.5127
R564 VCC.n245 VCC.n243 99.5127
R565 VCC.n241 VCC.n205 99.5127
R566 VCC.n237 VCC.n235 99.5127
R567 VCC.n233 VCC.n207 99.5127
R568 VCC.n229 VCC.n227 99.5127
R569 VCC.n225 VCC.n209 99.5127
R570 VCC.n221 VCC.n219 99.5127
R571 VCC.n217 VCC.n211 99.5127
R572 VCC.n213 VCC.n172 99.5127
R573 VCC.n580 VCC.n579 75.0551
R574 VCC.n647 VCC.n646 75.0551
R575 VCC.n197 VCC.n196 75.0551
R576 VCC.n178 VCC.n177 75.0551
R577 VCC.n709 VCC.n41 72.8958
R578 VCC.n707 VCC.n41 72.8958
R579 VCC.n701 VCC.n41 72.8958
R580 VCC.n699 VCC.n41 72.8958
R581 VCC.n693 VCC.n41 72.8958
R582 VCC.n691 VCC.n41 72.8958
R583 VCC.n685 VCC.n41 72.8958
R584 VCC.n683 VCC.n41 72.8958
R585 VCC.n677 VCC.n41 72.8958
R586 VCC.n675 VCC.n41 72.8958
R587 VCC.n669 VCC.n41 72.8958
R588 VCC.n667 VCC.n41 72.8958
R589 VCC.n661 VCC.n41 72.8958
R590 VCC.n659 VCC.n41 72.8958
R591 VCC.n653 VCC.n41 72.8958
R592 VCC.n651 VCC.n41 72.8958
R593 VCC.n642 VCC.n41 72.8958
R594 VCC.n640 VCC.n41 72.8958
R595 VCC.n634 VCC.n41 72.8958
R596 VCC.n632 VCC.n41 72.8958
R597 VCC.n626 VCC.n41 72.8958
R598 VCC.n624 VCC.n41 72.8958
R599 VCC.n618 VCC.n41 72.8958
R600 VCC.n616 VCC.n41 72.8958
R601 VCC.n610 VCC.n41 72.8958
R602 VCC.n608 VCC.n41 72.8958
R603 VCC.n602 VCC.n41 72.8958
R604 VCC.n600 VCC.n41 72.8958
R605 VCC.n594 VCC.n41 72.8958
R606 VCC.n592 VCC.n41 72.8958
R607 VCC.n586 VCC.n41 72.8958
R608 VCC.n584 VCC.n41 72.8958
R609 VCC.n575 VCC.n41 72.8958
R610 VCC.n338 VCC.n173 72.8958
R611 VCC.n176 VCC.n173 72.8958
R612 VCC.n331 VCC.n173 72.8958
R613 VCC.n325 VCC.n173 72.8958
R614 VCC.n323 VCC.n173 72.8958
R615 VCC.n317 VCC.n173 72.8958
R616 VCC.n315 VCC.n173 72.8958
R617 VCC.n309 VCC.n173 72.8958
R618 VCC.n307 VCC.n173 72.8958
R619 VCC.n301 VCC.n173 72.8958
R620 VCC.n299 VCC.n173 72.8958
R621 VCC.n293 VCC.n173 72.8958
R622 VCC.n291 VCC.n173 72.8958
R623 VCC.n285 VCC.n173 72.8958
R624 VCC.n283 VCC.n173 72.8958
R625 VCC.n277 VCC.n173 72.8958
R626 VCC.n275 VCC.n173 72.8958
R627 VCC.n268 VCC.n173 72.8958
R628 VCC.n266 VCC.n173 72.8958
R629 VCC.n260 VCC.n173 72.8958
R630 VCC.n258 VCC.n173 72.8958
R631 VCC.n252 VCC.n173 72.8958
R632 VCC.n250 VCC.n173 72.8958
R633 VCC.n244 VCC.n173 72.8958
R634 VCC.n242 VCC.n173 72.8958
R635 VCC.n236 VCC.n173 72.8958
R636 VCC.n234 VCC.n173 72.8958
R637 VCC.n228 VCC.n173 72.8958
R638 VCC.n226 VCC.n173 72.8958
R639 VCC.n220 VCC.n173 72.8958
R640 VCC.n218 VCC.n173 72.8958
R641 VCC.n212 VCC.n173 72.8958
R642 VCC.n576 VCC.n575 39.2114
R643 VCC.n585 VCC.n584 39.2114
R644 VCC.n586 VCC.n573 39.2114
R645 VCC.n593 VCC.n592 39.2114
R646 VCC.n594 VCC.n571 39.2114
R647 VCC.n601 VCC.n600 39.2114
R648 VCC.n602 VCC.n569 39.2114
R649 VCC.n609 VCC.n608 39.2114
R650 VCC.n610 VCC.n567 39.2114
R651 VCC.n617 VCC.n616 39.2114
R652 VCC.n618 VCC.n565 39.2114
R653 VCC.n625 VCC.n624 39.2114
R654 VCC.n626 VCC.n563 39.2114
R655 VCC.n633 VCC.n632 39.2114
R656 VCC.n634 VCC.n561 39.2114
R657 VCC.n641 VCC.n640 39.2114
R658 VCC.n642 VCC.n559 39.2114
R659 VCC.n652 VCC.n651 39.2114
R660 VCC.n653 VCC.n557 39.2114
R661 VCC.n660 VCC.n659 39.2114
R662 VCC.n661 VCC.n555 39.2114
R663 VCC.n668 VCC.n667 39.2114
R664 VCC.n669 VCC.n553 39.2114
R665 VCC.n676 VCC.n675 39.2114
R666 VCC.n677 VCC.n551 39.2114
R667 VCC.n684 VCC.n683 39.2114
R668 VCC.n685 VCC.n549 39.2114
R669 VCC.n692 VCC.n691 39.2114
R670 VCC.n693 VCC.n547 39.2114
R671 VCC.n700 VCC.n699 39.2114
R672 VCC.n701 VCC.n545 39.2114
R673 VCC.n708 VCC.n707 39.2114
R674 VCC.n709 VCC.n43 39.2114
R675 VCC.n338 VCC.n174 39.2114
R676 VCC.n336 VCC.n176 39.2114
R677 VCC.n332 VCC.n331 39.2114
R678 VCC.n325 VCC.n181 39.2114
R679 VCC.n324 VCC.n323 39.2114
R680 VCC.n317 VCC.n183 39.2114
R681 VCC.n316 VCC.n315 39.2114
R682 VCC.n309 VCC.n185 39.2114
R683 VCC.n308 VCC.n307 39.2114
R684 VCC.n301 VCC.n187 39.2114
R685 VCC.n300 VCC.n299 39.2114
R686 VCC.n293 VCC.n189 39.2114
R687 VCC.n292 VCC.n291 39.2114
R688 VCC.n285 VCC.n191 39.2114
R689 VCC.n284 VCC.n283 39.2114
R690 VCC.n277 VCC.n193 39.2114
R691 VCC.n276 VCC.n275 39.2114
R692 VCC.n268 VCC.n195 39.2114
R693 VCC.n267 VCC.n266 39.2114
R694 VCC.n260 VCC.n199 39.2114
R695 VCC.n259 VCC.n258 39.2114
R696 VCC.n252 VCC.n201 39.2114
R697 VCC.n251 VCC.n250 39.2114
R698 VCC.n244 VCC.n203 39.2114
R699 VCC.n243 VCC.n242 39.2114
R700 VCC.n236 VCC.n205 39.2114
R701 VCC.n235 VCC.n234 39.2114
R702 VCC.n228 VCC.n207 39.2114
R703 VCC.n227 VCC.n226 39.2114
R704 VCC.n220 VCC.n209 39.2114
R705 VCC.n219 VCC.n218 39.2114
R706 VCC.n212 VCC.n211 39.2114
R707 VCC.n710 VCC.n709 39.2114
R708 VCC.n707 VCC.n706 39.2114
R709 VCC.n702 VCC.n701 39.2114
R710 VCC.n699 VCC.n698 39.2114
R711 VCC.n694 VCC.n693 39.2114
R712 VCC.n691 VCC.n690 39.2114
R713 VCC.n686 VCC.n685 39.2114
R714 VCC.n683 VCC.n682 39.2114
R715 VCC.n678 VCC.n677 39.2114
R716 VCC.n675 VCC.n674 39.2114
R717 VCC.n670 VCC.n669 39.2114
R718 VCC.n667 VCC.n666 39.2114
R719 VCC.n662 VCC.n661 39.2114
R720 VCC.n659 VCC.n658 39.2114
R721 VCC.n654 VCC.n653 39.2114
R722 VCC.n651 VCC.n650 39.2114
R723 VCC.n643 VCC.n642 39.2114
R724 VCC.n640 VCC.n639 39.2114
R725 VCC.n635 VCC.n634 39.2114
R726 VCC.n632 VCC.n631 39.2114
R727 VCC.n627 VCC.n626 39.2114
R728 VCC.n624 VCC.n623 39.2114
R729 VCC.n619 VCC.n618 39.2114
R730 VCC.n616 VCC.n615 39.2114
R731 VCC.n611 VCC.n610 39.2114
R732 VCC.n608 VCC.n607 39.2114
R733 VCC.n603 VCC.n602 39.2114
R734 VCC.n600 VCC.n599 39.2114
R735 VCC.n595 VCC.n594 39.2114
R736 VCC.n592 VCC.n591 39.2114
R737 VCC.n587 VCC.n586 39.2114
R738 VCC.n584 VCC.n583 39.2114
R739 VCC.n575 VCC.n39 39.2114
R740 VCC.n339 VCC.n338 39.2114
R741 VCC.n333 VCC.n176 39.2114
R742 VCC.n331 VCC.n330 39.2114
R743 VCC.n326 VCC.n325 39.2114
R744 VCC.n323 VCC.n322 39.2114
R745 VCC.n318 VCC.n317 39.2114
R746 VCC.n315 VCC.n314 39.2114
R747 VCC.n310 VCC.n309 39.2114
R748 VCC.n307 VCC.n306 39.2114
R749 VCC.n302 VCC.n301 39.2114
R750 VCC.n299 VCC.n298 39.2114
R751 VCC.n294 VCC.n293 39.2114
R752 VCC.n291 VCC.n290 39.2114
R753 VCC.n286 VCC.n285 39.2114
R754 VCC.n283 VCC.n282 39.2114
R755 VCC.n278 VCC.n277 39.2114
R756 VCC.n275 VCC.n274 39.2114
R757 VCC.n269 VCC.n268 39.2114
R758 VCC.n266 VCC.n265 39.2114
R759 VCC.n261 VCC.n260 39.2114
R760 VCC.n258 VCC.n257 39.2114
R761 VCC.n253 VCC.n252 39.2114
R762 VCC.n250 VCC.n249 39.2114
R763 VCC.n245 VCC.n244 39.2114
R764 VCC.n242 VCC.n241 39.2114
R765 VCC.n237 VCC.n236 39.2114
R766 VCC.n234 VCC.n233 39.2114
R767 VCC.n229 VCC.n228 39.2114
R768 VCC.n226 VCC.n225 39.2114
R769 VCC.n221 VCC.n220 39.2114
R770 VCC.n218 VCC.n217 39.2114
R771 VCC.n213 VCC.n212 39.2114
R772 VCC.n345 VCC.n173 33.0491
R773 VCC.n716 VCC.n41 33.0491
R774 VCC.n581 VCC.n580 29.2853
R775 VCC.n648 VCC.n647 29.2853
R776 VCC.n272 VCC.n197 29.2853
R777 VCC.n179 VCC.n178 29.2853
R778 VCC.n577 VCC.n37 27.6654
R779 VCC.n713 VCC.n712 27.6654
R780 VCC.n342 VCC.n341 27.6654
R781 VCC.n348 VCC.n171 27.6654
R782 VCC.n345 VCC.n168 19.5559
R783 VCC.n353 VCC.n168 19.5559
R784 VCC.n353 VCC.n162 19.5559
R785 VCC.n361 VCC.n162 19.5559
R786 VCC.n369 VCC.n156 19.5559
R787 VCC.n369 VCC.n150 19.5559
R788 VCC.n377 VCC.n150 19.5559
R789 VCC.n377 VCC.n144 19.5559
R790 VCC.n385 VCC.n144 19.5559
R791 VCC.n385 VCC.n138 19.5559
R792 VCC.n393 VCC.n138 19.5559
R793 VCC.n393 VCC.n132 19.5559
R794 VCC.n401 VCC.n132 19.5559
R795 VCC.n409 VCC.n126 19.5559
R796 VCC.n409 VCC.n120 19.5559
R797 VCC.n417 VCC.n120 19.5559
R798 VCC.n417 VCC.n113 19.5559
R799 VCC.n425 VCC.n113 19.5559
R800 VCC.n425 VCC.n114 19.5559
R801 VCC.n434 VCC.n101 19.5559
R802 VCC.n442 VCC.n101 19.5559
R803 VCC.n442 VCC.n95 19.5559
R804 VCC.n452 VCC.n95 19.5559
R805 VCC.n452 VCC.n451 19.5559
R806 VCC.n451 VCC.n89 19.5559
R807 VCC.n461 VCC.n89 19.5559
R808 VCC.n469 VCC.n83 19.5559
R809 VCC.n470 VCC.n469 19.5559
R810 VCC.n472 VCC.n470 19.5559
R811 VCC.n472 VCC.n77 19.5559
R812 VCC.n480 VCC.n77 19.5559
R813 VCC.n481 VCC.n480 19.5559
R814 VCC.n483 VCC.n481 19.5559
R815 VCC.n491 VCC.n71 19.5559
R816 VCC.n492 VCC.n491 19.5559
R817 VCC.n494 VCC.n492 19.5559
R818 VCC.n494 VCC.n65 19.5559
R819 VCC.n502 VCC.n65 19.5559
R820 VCC.n503 VCC.n502 19.5559
R821 VCC.n505 VCC.n59 19.5559
R822 VCC.n513 VCC.n59 19.5559
R823 VCC.n514 VCC.n513 19.5559
R824 VCC.n516 VCC.n514 19.5559
R825 VCC.n516 VCC.n53 19.5559
R826 VCC.n524 VCC.n53 19.5559
R827 VCC.n525 VCC.n524 19.5559
R828 VCC.n528 VCC.n525 19.5559
R829 VCC.n528 VCC.n526 19.5559
R830 VCC.n537 VCC.n536 19.5559
R831 VCC.n539 VCC.n537 19.5559
R832 VCC.n539 VCC.n40 19.5559
R833 VCC.n716 VCC.n40 19.5559
R834 VCC.n347 VCC.n170 19.3944
R835 VCC.n351 VCC.n170 19.3944
R836 VCC.n351 VCC.n160 19.3944
R837 VCC.n363 VCC.n160 19.3944
R838 VCC.n363 VCC.n158 19.3944
R839 VCC.n367 VCC.n158 19.3944
R840 VCC.n367 VCC.n148 19.3944
R841 VCC.n379 VCC.n148 19.3944
R842 VCC.n379 VCC.n146 19.3944
R843 VCC.n383 VCC.n146 19.3944
R844 VCC.n383 VCC.n136 19.3944
R845 VCC.n395 VCC.n136 19.3944
R846 VCC.n395 VCC.n134 19.3944
R847 VCC.n399 VCC.n134 19.3944
R848 VCC.n399 VCC.n124 19.3944
R849 VCC.n411 VCC.n124 19.3944
R850 VCC.n411 VCC.n122 19.3944
R851 VCC.n415 VCC.n122 19.3944
R852 VCC.n415 VCC.n111 19.3944
R853 VCC.n427 VCC.n111 19.3944
R854 VCC.n427 VCC.n108 19.3944
R855 VCC.n432 VCC.n108 19.3944
R856 VCC.n432 VCC.n109 19.3944
R857 VCC.n109 VCC.n99 19.3944
R858 VCC.n445 VCC.n99 19.3944
R859 VCC.n445 VCC.n97 19.3944
R860 VCC.n449 VCC.n97 19.3944
R861 VCC.n449 VCC.n87 19.3944
R862 VCC.n463 VCC.n87 19.3944
R863 VCC.n463 VCC.n85 19.3944
R864 VCC.n467 VCC.n85 19.3944
R865 VCC.n467 VCC.n81 19.3944
R866 VCC.n474 VCC.n81 19.3944
R867 VCC.n474 VCC.n79 19.3944
R868 VCC.n478 VCC.n79 19.3944
R869 VCC.n478 VCC.n75 19.3944
R870 VCC.n485 VCC.n75 19.3944
R871 VCC.n485 VCC.n73 19.3944
R872 VCC.n489 VCC.n73 19.3944
R873 VCC.n489 VCC.n69 19.3944
R874 VCC.n496 VCC.n69 19.3944
R875 VCC.n496 VCC.n67 19.3944
R876 VCC.n500 VCC.n67 19.3944
R877 VCC.n500 VCC.n63 19.3944
R878 VCC.n507 VCC.n63 19.3944
R879 VCC.n507 VCC.n61 19.3944
R880 VCC.n511 VCC.n61 19.3944
R881 VCC.n511 VCC.n57 19.3944
R882 VCC.n518 VCC.n57 19.3944
R883 VCC.n518 VCC.n55 19.3944
R884 VCC.n522 VCC.n55 19.3944
R885 VCC.n522 VCC.n51 19.3944
R886 VCC.n530 VCC.n51 19.3944
R887 VCC.n530 VCC.n49 19.3944
R888 VCC.n534 VCC.n49 19.3944
R889 VCC.n534 VCC.n46 19.3944
R890 VCC.n541 VCC.n46 19.3944
R891 VCC.n541 VCC.n44 19.3944
R892 VCC.n714 VCC.n44 19.3944
R893 VCC.n343 VCC.n166 19.3944
R894 VCC.n355 VCC.n166 19.3944
R895 VCC.n355 VCC.n164 19.3944
R896 VCC.n359 VCC.n164 19.3944
R897 VCC.n359 VCC.n154 19.3944
R898 VCC.n371 VCC.n154 19.3944
R899 VCC.n371 VCC.n152 19.3944
R900 VCC.n375 VCC.n152 19.3944
R901 VCC.n375 VCC.n142 19.3944
R902 VCC.n387 VCC.n142 19.3944
R903 VCC.n387 VCC.n140 19.3944
R904 VCC.n391 VCC.n140 19.3944
R905 VCC.n391 VCC.n130 19.3944
R906 VCC.n403 VCC.n130 19.3944
R907 VCC.n403 VCC.n128 19.3944
R908 VCC.n407 VCC.n128 19.3944
R909 VCC.n407 VCC.n118 19.3944
R910 VCC.n419 VCC.n118 19.3944
R911 VCC.n419 VCC.n116 19.3944
R912 VCC.n423 VCC.n116 19.3944
R913 VCC.n423 VCC.n105 19.3944
R914 VCC.n436 VCC.n105 19.3944
R915 VCC.n436 VCC.n103 19.3944
R916 VCC.n440 VCC.n103 19.3944
R917 VCC.n440 VCC.n93 19.3944
R918 VCC.n454 VCC.n93 19.3944
R919 VCC.n454 VCC.n91 19.3944
R920 VCC.n458 VCC.n91 19.3944
R921 VCC.n458 VCC.n2 19.3944
R922 VCC.n761 VCC.n2 19.3944
R923 VCC.n761 VCC.n760 19.3944
R924 VCC.n760 VCC.n759 19.3944
R925 VCC.n759 VCC.n6 19.3944
R926 VCC.n755 VCC.n6 19.3944
R927 VCC.n755 VCC.n754 19.3944
R928 VCC.n754 VCC.n753 19.3944
R929 VCC.n753 VCC.n11 19.3944
R930 VCC.n749 VCC.n11 19.3944
R931 VCC.n749 VCC.n748 19.3944
R932 VCC.n748 VCC.n747 19.3944
R933 VCC.n747 VCC.n16 19.3944