* NGSPICE file created from opamp_sample_0002.ext - technology: sky130A

.subckt opamp_sample_0002 GND VOUT VDD VN VP CS_BIAS DIFFPAIR_BIAS
X0 a_n11986_8880.t13 a_n5004_9136.t22 a_n3584_7550.t1 VDD.t112 sky130_fd_pr__pfet_01v8 ad=0.6996 pd=4.57 as=1.6536 ps=9.26 w=4.24 l=2.43
X1 a_n1672_n179.t10 DIFFPAIR_BIAS.t6 GND.t171 GND.t170 sky130_fd_pr__nfet_01v8 ad=1.5678 pd=8.82 as=1.5678 ps=8.82 w=4.02 l=3.07
X2 GND.t153 GND.t151 GND.t152 GND.t34 sky130_fd_pr__nfet_01v8 ad=1.3572 pd=7.74 as=0 ps=0 w=3.48 l=4.65
X3 VOUT.t35 CS_BIAS.t12 GND.t22 GND.t20 sky130_fd_pr__nfet_01v8 ad=0.5742 pd=3.81 as=1.3572 ps=7.74 w=3.48 l=4.65
X4 a_n3584_7550.t14 a_n5004_9136.t23 VDD.t114 VDD.t113 sky130_fd_pr__pfet_01v8 ad=0.6996 pd=4.57 as=0.6996 ps=4.57 w=4.24 l=2.43
X5 VDD.t55 VDD.t53 VDD.t54 VDD.t50 sky130_fd_pr__pfet_01v8 ad=1.6536 pd=9.26 as=0 ps=0 w=4.24 l=2.43
X6 a_n5004_9136.t3 VP.t7 a_n1672_n179.t6 GND.t8 sky130_fd_pr__nfet_01v8 ad=1.6107 pd=9.04 as=0.68145 ps=4.46 w=4.13 l=2.2
X7 GND.t150 GND.t148 GND.t149 GND.t84 sky130_fd_pr__nfet_01v8 ad=1.3572 pd=7.74 as=0 ps=0 w=3.48 l=4.65
X8 GND.t147 GND.t145 VN.t6 GND.t146 sky130_fd_pr__nfet_01v8 ad=0.165 pd=1.33 as=0.165 ps=1.33 w=1 l=0.5
X9 a_n11986_8880.t2 VN.t7 a_n1672_n179.t5 GND.t0 sky130_fd_pr__nfet_01v8 ad=0.68145 pd=4.46 as=1.6107 ps=9.04 w=4.13 l=2.2
X10 a_n3584_7550.t2 a_n5004_9136.t24 a_n11986_8880.t12 VDD.t93 sky130_fd_pr__pfet_01v8 ad=0.6996 pd=4.57 as=0.6996 ps=4.57 w=4.24 l=2.43
X11 a_n5082_9332.t15 a_n5004_9136.t14 a_n5004_9136.t15 VDD.t77 sky130_fd_pr__pfet_01v8 ad=0.6996 pd=4.57 as=1.6536 ps=9.26 w=4.24 l=2.43
X12 GND.t15 CS_BIAS.t13 VOUT.t34 GND.t14 sky130_fd_pr__nfet_01v8 ad=0.5742 pd=3.81 as=0.5742 ps=3.81 w=3.48 l=4.65
X13 GND.t23 CS_BIAS.t14 VOUT.t33 GND.t14 sky130_fd_pr__nfet_01v8 ad=0.5742 pd=3.81 as=0.5742 ps=3.81 w=3.48 l=4.65
X14 VDD.t52 VDD.t49 VDD.t51 VDD.t50 sky130_fd_pr__pfet_01v8 ad=1.6536 pd=9.26 as=0 ps=0 w=4.24 l=2.43
X15 VOUT.t11 a_n11986_8880.t14 VDD.t74 VDD.t62 sky130_fd_pr__pfet_01v8 ad=0.33165 pd=2.34 as=0.7839 ps=4.8 w=2.01 l=5.87
X16 CS_BIAS.t11 CS_BIAS.t10 GND.t159 GND.t20 sky130_fd_pr__nfet_01v8 ad=0.5742 pd=3.81 as=1.3572 ps=7.74 w=3.48 l=4.65
X17 GND.t144 GND.t142 GND.t143 GND.t74 sky130_fd_pr__nfet_01v8 ad=1.6107 pd=9.04 as=0 ps=0 w=4.13 l=2.2
X18 GND.t126 GND.t124 VN.t5 GND.t125 sky130_fd_pr__nfet_01v8 ad=0.165 pd=1.33 as=0.165 ps=1.33 w=1 l=0.5
X19 a_n3584_7550.t11 a_n5004_9136.t25 a_n11986_8880.t11 VDD.t111 sky130_fd_pr__pfet_01v8 ad=0.6996 pd=4.57 as=0.6996 ps=4.57 w=4.24 l=2.43
X20 a_n5082_9332.t14 a_n5004_9136.t8 a_n5004_9136.t9 VDD.t112 sky130_fd_pr__pfet_01v8 ad=0.6996 pd=4.57 as=1.6536 ps=9.26 w=4.24 l=2.43
X21 GND.t141 GND.t139 GND.t140 GND.t61 sky130_fd_pr__nfet_01v8 ad=1.3572 pd=7.74 as=0 ps=0 w=3.48 l=4.65
X22 VP.t6 GND.t136 GND.t138 GND.t137 sky130_fd_pr__nfet_01v8 ad=0.165 pd=1.33 as=0.165 ps=1.33 w=1 l=0.5
X23 VOUT.t10 a_n11986_8880.t15 VDD.t73 VDD.t59 sky130_fd_pr__pfet_01v8 ad=0.33165 pd=2.34 as=0.7839 ps=4.8 w=2.01 l=5.87
X24 a_n5004_9136.t11 a_n5004_9136.t10 a_n5082_9332.t13 VDD.t111 sky130_fd_pr__pfet_01v8 ad=0.6996 pd=4.57 as=0.6996 ps=4.57 w=4.24 l=2.43
X25 VDD.t48 VDD.t46 VDD.t47 VDD.t9 sky130_fd_pr__pfet_01v8 ad=0.7839 pd=4.8 as=0 ps=0 w=2.01 l=5.87
X26 VOUT.t32 CS_BIAS.t15 GND.t12 GND.t11 sky130_fd_pr__nfet_01v8 ad=1.3572 pd=7.74 as=0.5742 ps=3.81 w=3.48 l=4.65
X27 VDD.t110 a_n5004_9136.t26 a_n3584_7550.t5 VDD.t109 sky130_fd_pr__pfet_01v8 ad=0.6996 pd=4.57 as=1.6536 ps=9.26 w=4.24 l=2.43
X28 VOUT.t9 a_n11986_8880.t16 VDD.t72 VDD.t70 sky130_fd_pr__pfet_01v8 ad=0.7839 pd=4.8 as=0.33165 ps=2.34 w=2.01 l=5.87
X29 GND.t135 GND.t133 GND.t134 GND.t34 sky130_fd_pr__nfet_01v8 ad=1.3572 pd=7.74 as=0 ps=0 w=3.48 l=4.65
X30 VOUT.t8 a_n11986_8880.t17 VDD.t71 VDD.t70 sky130_fd_pr__pfet_01v8 ad=0.7839 pd=4.8 as=0.33165 ps=2.34 w=2.01 l=5.87
X31 DIFFPAIR_BIAS.t5 DIFFPAIR_BIAS.t4 GND.t169 GND.t168 sky130_fd_pr__nfet_01v8 ad=1.5678 pd=8.82 as=1.5678 ps=8.82 w=4.02 l=3.07
X32 VDD.t108 a_n5004_9136.t27 a_n3584_7550.t4 VDD.t107 sky130_fd_pr__pfet_01v8 ad=0.6996 pd=4.57 as=1.6536 ps=9.26 w=4.24 l=2.43
X33 VOUT.t31 CS_BIAS.t16 GND.t180 GND.t11 sky130_fd_pr__nfet_01v8 ad=1.3572 pd=7.74 as=0.5742 ps=3.81 w=3.48 l=4.65
X34 GND.t132 GND.t130 VN.t4 GND.t131 sky130_fd_pr__nfet_01v8 ad=0.39 pd=2.78 as=0.165 ps=1.33 w=1 l=0.5
X35 VP.t5 GND.t127 GND.t129 GND.t128 sky130_fd_pr__nfet_01v8 ad=0.165 pd=1.33 as=0.165 ps=1.33 w=1 l=0.5
X36 VDD.t45 VDD.t43 VDD.t44 VDD.t40 sky130_fd_pr__pfet_01v8 ad=1.6536 pd=9.26 as=0 ps=0 w=4.24 l=2.43
X37 VDD.t42 VDD.t39 VDD.t41 VDD.t40 sky130_fd_pr__pfet_01v8 ad=1.6536 pd=9.26 as=0 ps=0 w=4.24 l=2.43
X38 GND.t123 GND.t121 GND.t122 GND.t44 sky130_fd_pr__nfet_01v8 ad=1.3572 pd=7.74 as=0 ps=0 w=3.48 l=4.65
X39 a_5210_9332# a_5210_9332# a_5210_9332# VDD.t115 sky130_fd_pr__pfet_01v8 ad=1.6536 pd=9.26 as=3.3072 ps=18.52 w=4.24 l=2.43
X40 a_n3584_7550.t8 a_n5004_9136.t28 a_n11986_8880.t10 VDD.t88 sky130_fd_pr__pfet_01v8 ad=1.6536 pd=9.26 as=0.6996 ps=4.57 w=4.24 l=2.43
X41 GND.t175 CS_BIAS.t17 VOUT.t30 GND.t16 sky130_fd_pr__nfet_01v8 ad=0.5742 pd=3.81 as=0.5742 ps=3.81 w=3.48 l=4.65
X42 GND.t120 GND.t118 VN.t3 GND.t119 sky130_fd_pr__nfet_01v8 ad=0.165 pd=1.33 as=0.39 ps=2.78 w=1 l=0.5
X43 VDD.t38 VDD.t36 VDD.t37 VDD.t16 sky130_fd_pr__pfet_01v8 ad=1.6536 pd=9.26 as=0 ps=0 w=4.24 l=2.43
X44 GND.t117 GND.t115 GND.t116 GND.t44 sky130_fd_pr__nfet_01v8 ad=1.3572 pd=7.74 as=0 ps=0 w=3.48 l=4.65
X45 a_n5004_9136.t1 VP.t8 a_n1672_n179.t1 GND.t1 sky130_fd_pr__nfet_01v8 ad=1.6107 pd=9.04 as=0.68145 ps=4.46 w=4.13 l=2.2
X46 VOUT.t29 CS_BIAS.t18 GND.t158 GND.t20 sky130_fd_pr__nfet_01v8 ad=0.5742 pd=3.81 as=1.3572 ps=7.74 w=3.48 l=4.65
X47 VDD.t35 VDD.t33 VDD.t34 VDD.t20 sky130_fd_pr__pfet_01v8 ad=0.7839 pd=4.8 as=0 ps=0 w=2.01 l=5.87
X48 VOUT.t28 CS_BIAS.t19 GND.t155 GND.t11 sky130_fd_pr__nfet_01v8 ad=1.3572 pd=7.74 as=0.5742 ps=3.81 w=3.48 l=4.65
X49 VOUT.t36 a_n3584_7550.t0 sky130_fd_pr__cap_mim_m3_1 l=10.17 w=15.34
X50 VOUT.t27 CS_BIAS.t20 GND.t7 GND.t3 sky130_fd_pr__nfet_01v8 ad=0.5742 pd=3.81 as=1.3572 ps=7.74 w=3.48 l=4.65
X51 a_n1672_n179.t11 VN.t8 a_n11986_8880.t4 GND.t176 sky130_fd_pr__nfet_01v8 ad=0.68145 pd=4.46 as=0.68145 ps=4.46 w=4.13 l=2.2
X52 VP.t4 GND.t112 GND.t114 GND.t113 sky130_fd_pr__nfet_01v8 ad=0.165 pd=1.33 as=0.165 ps=1.33 w=1 l=0.5
X53 GND.t111 GND.t109 GND.t110 GND.t44 sky130_fd_pr__nfet_01v8 ad=1.3572 pd=7.74 as=0 ps=0 w=3.48 l=4.65
X54 a_n11986_8880.t9 a_n5004_9136.t29 a_n3584_7550.t15 VDD.t102 sky130_fd_pr__pfet_01v8 ad=0.6996 pd=4.57 as=0.6996 ps=4.57 w=4.24 l=2.43
X55 a_n11986_8880.t1 VN.t9 a_n1672_n179.t4 GND.t9 sky130_fd_pr__nfet_01v8 ad=0.68145 pd=4.46 as=1.6107 ps=9.04 w=4.13 l=2.2
X56 VDD.t69 a_n11986_8880.t18 VOUT.t7 VDD.t64 sky130_fd_pr__pfet_01v8 ad=0.33165 pd=2.34 as=0.33165 ps=2.34 w=2.01 l=5.87
X57 GND.t17 CS_BIAS.t21 VOUT.t26 GND.t16 sky130_fd_pr__nfet_01v8 ad=0.5742 pd=3.81 as=0.5742 ps=3.81 w=3.48 l=4.65
X58 a_n1672_n179.t2 VP.t9 a_n5004_9136.t2 GND.t2 sky130_fd_pr__nfet_01v8 ad=0.68145 pd=4.46 as=0.68145 ps=4.46 w=4.13 l=2.2
X59 VDD.t106 a_n5004_9136.t30 a_n5082_9332.t7 VDD.t105 sky130_fd_pr__pfet_01v8 ad=0.6996 pd=4.57 as=1.6536 ps=9.26 w=4.24 l=2.43
X60 VDD.t104 a_n5004_9136.t31 a_n5082_9332.t6 VDD.t103 sky130_fd_pr__pfet_01v8 ad=0.6996 pd=4.57 as=0.6996 ps=4.57 w=4.24 l=2.43
X61 GND.t108 GND.t105 GND.t107 GND.t106 sky130_fd_pr__nfet_01v8 ad=1.5678 pd=8.82 as=0 ps=0 w=4.02 l=3.07
X62 VDD.t32 VDD.t30 VDD.t31 VDD.t1 sky130_fd_pr__pfet_01v8 ad=0.7839 pd=4.8 as=0 ps=0 w=2.01 l=5.87
X63 VOUT.t37 a_n3584_7550.t0 sky130_fd_pr__cap_mim_m3_1 l=10.17 w=15.34
X64 a_n5082_9332.t12 a_n5004_9136.t6 a_n5004_9136.t7 VDD.t102 sky130_fd_pr__pfet_01v8 ad=0.6996 pd=4.57 as=0.6996 ps=4.57 w=4.24 l=2.43
X65 a_n3584_7550.t10 a_n5004_9136.t32 a_n11986_8880.t8 VDD.t80 sky130_fd_pr__pfet_01v8 ad=1.6536 pd=9.26 as=0.6996 ps=4.57 w=4.24 l=2.43
X66 GND.t104 GND.t102 GND.t103 GND.t84 sky130_fd_pr__nfet_01v8 ad=1.3572 pd=7.74 as=0 ps=0 w=3.48 l=4.65
X67 a_n5082_9332.t5 a_n5004_9136.t33 VDD.t101 VDD.t100 sky130_fd_pr__pfet_01v8 ad=1.6536 pd=9.26 as=0.6996 ps=4.57 w=4.24 l=2.43
X68 VOUT.t25 CS_BIAS.t22 GND.t156 GND.t5 sky130_fd_pr__nfet_01v8 ad=1.3572 pd=7.74 as=0.5742 ps=3.81 w=3.48 l=4.65
X69 VOUT.t24 CS_BIAS.t23 GND.t21 GND.t20 sky130_fd_pr__nfet_01v8 ad=0.5742 pd=3.81 as=1.3572 ps=7.74 w=3.48 l=4.65
X70 GND.t101 GND.t99 GND.t100 GND.t44 sky130_fd_pr__nfet_01v8 ad=1.3572 pd=7.74 as=0 ps=0 w=3.48 l=4.65
X71 VOUT.t23 CS_BIAS.t24 GND.t25 GND.t3 sky130_fd_pr__nfet_01v8 ad=0.5742 pd=3.81 as=1.3572 ps=7.74 w=3.48 l=4.65
X72 a_n1672_n179.t9 DIFFPAIR_BIAS.t7 GND.t167 GND.t166 sky130_fd_pr__nfet_01v8 ad=1.5678 pd=8.82 as=1.5678 ps=8.82 w=4.02 l=3.07
X73 GND.t98 GND.t96 GND.t97 GND.t84 sky130_fd_pr__nfet_01v8 ad=1.3572 pd=7.74 as=0 ps=0 w=3.48 l=4.65
X74 GND.t95 GND.t93 GND.t94 GND.t61 sky130_fd_pr__nfet_01v8 ad=1.3572 pd=7.74 as=0 ps=0 w=3.48 l=4.65
X75 GND.t39 GND.t37 GND.t38 GND.t27 sky130_fd_pr__nfet_01v8 ad=1.6107 pd=9.04 as=0 ps=0 w=4.13 l=2.2
X76 GND.t18 CS_BIAS.t25 VOUT.t22 GND.t14 sky130_fd_pr__nfet_01v8 ad=0.5742 pd=3.81 as=0.5742 ps=3.81 w=3.48 l=4.65
X77 a_n5082_9332.t4 a_n5004_9136.t34 VDD.t99 VDD.t98 sky130_fd_pr__pfet_01v8 ad=0.6996 pd=4.57 as=0.6996 ps=4.57 w=4.24 l=2.43
X78 CS_BIAS.t9 CS_BIAS.t8 GND.t24 GND.t5 sky130_fd_pr__nfet_01v8 ad=1.3572 pd=7.74 as=0.5742 ps=3.81 w=3.48 l=4.65
X79 GND.t92 GND.t90 GND.t91 GND.t61 sky130_fd_pr__nfet_01v8 ad=1.3572 pd=7.74 as=0 ps=0 w=3.48 l=4.65
X80 VDD.t29 VDD.t27 VDD.t28 VDD.t24 sky130_fd_pr__pfet_01v8 ad=1.6536 pd=9.26 as=0 ps=0 w=4.24 l=2.43
X81 DIFFPAIR_BIAS.t3 DIFFPAIR_BIAS.t2 GND.t165 GND.t164 sky130_fd_pr__nfet_01v8 ad=1.5678 pd=8.82 as=1.5678 ps=8.82 w=4.02 l=3.07
X82 a_n11986_8880.t0 VN.t10 a_n1672_n179.t3 GND.t8 sky130_fd_pr__nfet_01v8 ad=1.6107 pd=9.04 as=0.68145 ps=4.46 w=4.13 l=2.2
X83 a_n3584_7550.t9 a_n5004_9136.t35 VDD.t97 VDD.t96 sky130_fd_pr__pfet_01v8 ad=1.6536 pd=9.26 as=0.6996 ps=4.57 w=4.24 l=2.43
X84 a_n5004_9136.t0 VP.t10 a_n1672_n179.t0 GND.t0 sky130_fd_pr__nfet_01v8 ad=0.68145 pd=4.46 as=1.6107 ps=9.04 w=4.13 l=2.2
X85 VOUT.t21 CS_BIAS.t26 GND.t177 GND.t20 sky130_fd_pr__nfet_01v8 ad=0.5742 pd=3.81 as=1.3572 ps=7.74 w=3.48 l=4.65
X86 GND.t89 GND.t87 GND.t88 GND.t84 sky130_fd_pr__nfet_01v8 ad=1.3572 pd=7.74 as=0 ps=0 w=3.48 l=4.65
X87 a_n5852_9332# a_n5852_9332# a_n5852_9332# VDD.t56 sky130_fd_pr__pfet_01v8 ad=1.6536 pd=9.26 as=3.3072 ps=18.52 w=4.24 l=2.43
X88 GND.t86 GND.t83 GND.t85 GND.t84 sky130_fd_pr__nfet_01v8 ad=1.3572 pd=7.74 as=0 ps=0 w=3.48 l=4.65
X89 a_n5082_9332.t3 a_n5004_9136.t36 VDD.t95 VDD.t94 sky130_fd_pr__pfet_01v8 ad=1.6536 pd=9.26 as=0.6996 ps=4.57 w=4.24 l=2.43
X90 GND.t19 CS_BIAS.t27 VOUT.t20 GND.t14 sky130_fd_pr__nfet_01v8 ad=0.5742 pd=3.81 as=0.5742 ps=3.81 w=3.48 l=4.65
X91 GND.t66 GND.t64 GND.t65 GND.t34 sky130_fd_pr__nfet_01v8 ad=1.3572 pd=7.74 as=0 ps=0 w=3.48 l=4.65
X92 GND.t82 GND.t80 VP.t3 GND.t81 sky130_fd_pr__nfet_01v8 ad=0.165 pd=1.33 as=0.39 ps=2.78 w=1 l=0.5
X93 GND.t79 GND.t77 GND.t78 GND.t61 sky130_fd_pr__nfet_01v8 ad=1.3572 pd=7.74 as=0 ps=0 w=3.48 l=4.65
X94 GND.t76 GND.t73 GND.t75 GND.t74 sky130_fd_pr__nfet_01v8 ad=1.6107 pd=9.04 as=0 ps=0 w=4.13 l=2.2
X95 VDD.t26 VDD.t23 VDD.t25 VDD.t24 sky130_fd_pr__pfet_01v8 ad=1.6536 pd=9.26 as=0 ps=0 w=4.24 l=2.43
X96 GND.t63 GND.t60 GND.t62 GND.t61 sky130_fd_pr__nfet_01v8 ad=1.3572 pd=7.74 as=0 ps=0 w=3.48 l=4.65
X97 a_n5004_9136.t13 a_n5004_9136.t12 a_n5082_9332.t11 VDD.t93 sky130_fd_pr__pfet_01v8 ad=0.6996 pd=4.57 as=0.6996 ps=4.57 w=4.24 l=2.43
X98 VDD.t22 VDD.t19 VDD.t21 VDD.t20 sky130_fd_pr__pfet_01v8 ad=0.7839 pd=4.8 as=0 ps=0 w=2.01 l=5.87
X99 GND.t72 GND.t70 GND.t71 GND.t34 sky130_fd_pr__nfet_01v8 ad=1.3572 pd=7.74 as=0 ps=0 w=3.48 l=4.65
X100 VOUT.t6 a_n11986_8880.t19 VDD.t68 VDD.t66 sky130_fd_pr__pfet_01v8 ad=0.7839 pd=4.8 as=0.33165 ps=2.34 w=2.01 l=5.87
X101 VDD.t92 a_n5004_9136.t37 a_n3584_7550.t12 VDD.t91 sky130_fd_pr__pfet_01v8 ad=0.6996 pd=4.57 as=0.6996 ps=4.57 w=4.24 l=2.43
X102 a_n3584_7550.t13 a_n5004_9136.t38 VDD.t90 VDD.t89 sky130_fd_pr__pfet_01v8 ad=1.6536 pd=9.26 as=0.6996 ps=4.57 w=4.24 l=2.43
X103 VOUT.t19 CS_BIAS.t28 GND.t179 GND.t5 sky130_fd_pr__nfet_01v8 ad=1.3572 pd=7.74 as=0.5742 ps=3.81 w=3.48 l=4.65
X104 VN.t2 GND.t67 GND.t69 GND.t68 sky130_fd_pr__nfet_01v8 ad=0.165 pd=1.33 as=0.165 ps=1.33 w=1 l=0.5
X105 VDD.t18 VDD.t15 VDD.t17 VDD.t16 sky130_fd_pr__pfet_01v8 ad=1.6536 pd=9.26 as=0 ps=0 w=4.24 l=2.43
X106 a_n11986_8880.t7 a_n5004_9136.t39 a_n3584_7550.t16 VDD.t85 sky130_fd_pr__pfet_01v8 ad=0.6996 pd=4.57 as=0.6996 ps=4.57 w=4.24 l=2.43
X107 GND.t59 GND.t57 VP.t2 GND.t58 sky130_fd_pr__nfet_01v8 ad=0.39 pd=2.78 as=0.165 ps=1.33 w=1 l=0.5
X108 a_n5004_9136.t17 a_n5004_9136.t16 a_n5082_9332.t10 VDD.t88 sky130_fd_pr__pfet_01v8 ad=1.6536 pd=9.26 as=0.6996 ps=4.57 w=4.24 l=2.43
X109 CS_BIAS.t7 CS_BIAS.t6 GND.t10 GND.t3 sky130_fd_pr__nfet_01v8 ad=0.5742 pd=3.81 as=1.3572 ps=7.74 w=3.48 l=4.65
X110 a_n1672_n179.t8 DIFFPAIR_BIAS.t8 GND.t163 GND.t162 sky130_fd_pr__nfet_01v8 ad=1.5678 pd=8.82 as=1.5678 ps=8.82 w=4.02 l=3.07
X111 GND.t56 GND.t53 GND.t55 GND.t54 sky130_fd_pr__nfet_01v8 ad=1.5678 pd=8.82 as=0 ps=0 w=4.02 l=3.07
X112 VN.t1 GND.t50 GND.t52 GND.t51 sky130_fd_pr__nfet_01v8 ad=0.165 pd=1.33 as=0.165 ps=1.33 w=1 l=0.5
X113 VOUT.t5 a_n11986_8880.t20 VDD.t67 VDD.t66 sky130_fd_pr__pfet_01v8 ad=0.7839 pd=4.8 as=0.33165 ps=2.34 w=2.01 l=5.87
X114 DIFFPAIR_BIAS.t1 DIFFPAIR_BIAS.t0 GND.t161 GND.t160 sky130_fd_pr__nfet_01v8 ad=1.5678 pd=8.82 as=1.5678 ps=8.82 w=4.02 l=3.07
X115 GND.t49 GND.t47 VP.t1 GND.t48 sky130_fd_pr__nfet_01v8 ad=0.165 pd=1.33 as=0.165 ps=1.33 w=1 l=0.5
X116 a_n5082_9332.t2 a_n5004_9136.t40 VDD.t87 VDD.t86 sky130_fd_pr__pfet_01v8 ad=0.6996 pd=4.57 as=0.6996 ps=4.57 w=4.24 l=2.43
X117 VOUT.t18 CS_BIAS.t29 GND.t13 GND.t11 sky130_fd_pr__nfet_01v8 ad=1.3572 pd=7.74 as=0.5742 ps=3.81 w=3.48 l=4.65
X118 a_n5082_9332.t9 a_n5004_9136.t18 a_n5004_9136.t19 VDD.t85 sky130_fd_pr__pfet_01v8 ad=0.6996 pd=4.57 as=0.6996 ps=4.57 w=4.24 l=2.43
X119 a_n1672_n179.t13 VP.t11 a_n5004_9136.t5 GND.t176 sky130_fd_pr__nfet_01v8 ad=0.68145 pd=4.46 as=0.68145 ps=4.46 w=4.13 l=2.2
X120 VDD.t14 VDD.t12 VDD.t13 VDD.t5 sky130_fd_pr__pfet_01v8 ad=0.7839 pd=4.8 as=0 ps=0 w=2.01 l=5.87
X121 VDD.t65 a_n11986_8880.t21 VOUT.t4 VDD.t64 sky130_fd_pr__pfet_01v8 ad=0.33165 pd=2.34 as=0.33165 ps=2.34 w=2.01 l=5.87
X122 VDD.t11 VDD.t8 VDD.t10 VDD.t9 sky130_fd_pr__pfet_01v8 ad=0.7839 pd=4.8 as=0 ps=0 w=2.01 l=5.87
X123 GND.t157 CS_BIAS.t4 CS_BIAS.t5 GND.t16 sky130_fd_pr__nfet_01v8 ad=0.5742 pd=3.81 as=0.5742 ps=3.81 w=3.48 l=4.65
X124 a_n11986_8880.t5 VN.t11 a_n1672_n179.t14 GND.t1 sky130_fd_pr__nfet_01v8 ad=1.6107 pd=9.04 as=0.68145 ps=4.46 w=4.13 l=2.2
X125 VDD.t84 a_n5004_9136.t41 a_n3584_7550.t7 VDD.t83 sky130_fd_pr__pfet_01v8 ad=0.6996 pd=4.57 as=0.6996 ps=4.57 w=4.24 l=2.43
X126 GND.t46 GND.t43 GND.t45 GND.t44 sky130_fd_pr__nfet_01v8 ad=1.3572 pd=7.74 as=0 ps=0 w=3.48 l=4.65
X127 VOUT.t3 a_n11986_8880.t22 VDD.t63 VDD.t62 sky130_fd_pr__pfet_01v8 ad=0.33165 pd=2.34 as=0.7839 ps=4.8 w=2.01 l=5.87
X128 VOUT.t17 CS_BIAS.t30 GND.t173 GND.t5 sky130_fd_pr__nfet_01v8 ad=1.3572 pd=7.74 as=0.5742 ps=3.81 w=3.48 l=4.65
X129 GND.t36 GND.t33 GND.t35 GND.t34 sky130_fd_pr__nfet_01v8 ad=1.3572 pd=7.74 as=0 ps=0 w=3.48 l=4.65
X130 GND.t172 CS_BIAS.t31 VOUT.t16 GND.t16 sky130_fd_pr__nfet_01v8 ad=0.5742 pd=3.81 as=0.5742 ps=3.81 w=3.48 l=4.65
X131 a_n1672_n179.t7 VN.t12 a_n11986_8880.t3 GND.t2 sky130_fd_pr__nfet_01v8 ad=0.68145 pd=4.46 as=0.68145 ps=4.46 w=4.13 l=2.2
X132 VDD.t7 VDD.t4 VDD.t6 VDD.t5 sky130_fd_pr__pfet_01v8 ad=0.7839 pd=4.8 as=0 ps=0 w=2.01 l=5.87
X133 VDD.t61 a_n11986_8880.t23 VOUT.t2 VDD.t57 sky130_fd_pr__pfet_01v8 ad=0.33165 pd=2.34 as=0.33165 ps=2.34 w=2.01 l=5.87
X134 VOUT.t15 CS_BIAS.t32 GND.t4 GND.t3 sky130_fd_pr__nfet_01v8 ad=0.5742 pd=3.81 as=1.3572 ps=7.74 w=3.48 l=4.65
X135 a_n5004_9136.t4 VP.t12 a_n1672_n179.t12 GND.t9 sky130_fd_pr__nfet_01v8 ad=0.68145 pd=4.46 as=1.6107 ps=9.04 w=4.13 l=2.2
X136 VN.t0 GND.t40 GND.t42 GND.t41 sky130_fd_pr__nfet_01v8 ad=0.165 pd=1.33 as=0.165 ps=1.33 w=1 l=0.5
X137 GND.t32 GND.t30 VP.t0 GND.t31 sky130_fd_pr__nfet_01v8 ad=0.165 pd=1.33 as=0.165 ps=1.33 w=1 l=0.5
X138 VDD.t82 a_n5004_9136.t42 a_n5082_9332.t1 VDD.t81 sky130_fd_pr__pfet_01v8 ad=0.6996 pd=4.57 as=1.6536 ps=9.26 w=4.24 l=2.43
X139 VOUT.t38 a_n3584_7550.t0 sky130_fd_pr__cap_mim_m3_1 l=10.17 w=15.34
X140 a_n5004_9136.t21 a_n5004_9136.t20 a_n5082_9332.t8 VDD.t80 sky130_fd_pr__pfet_01v8 ad=1.6536 pd=9.26 as=0.6996 ps=4.57 w=4.24 l=2.43
X141 VOUT.t14 CS_BIAS.t33 GND.t178 GND.t3 sky130_fd_pr__nfet_01v8 ad=0.5742 pd=3.81 as=1.3572 ps=7.74 w=3.48 l=4.65
X142 a_n3584_7550.t6 a_n5004_9136.t43 VDD.t79 VDD.t78 sky130_fd_pr__pfet_01v8 ad=0.6996 pd=4.57 as=0.6996 ps=4.57 w=4.24 l=2.43
X143 GND.t181 CS_BIAS.t2 CS_BIAS.t3 GND.t14 sky130_fd_pr__nfet_01v8 ad=0.5742 pd=3.81 as=0.5742 ps=3.81 w=3.48 l=4.65
X144 VOUT.t13 CS_BIAS.t34 GND.t6 GND.t5 sky130_fd_pr__nfet_01v8 ad=1.3572 pd=7.74 as=0.5742 ps=3.81 w=3.48 l=4.65
X145 GND.t29 GND.t26 GND.t28 GND.t27 sky130_fd_pr__nfet_01v8 ad=1.6107 pd=9.04 as=0 ps=0 w=4.13 l=2.2
X146 GND.t174 CS_BIAS.t35 VOUT.t12 GND.t16 sky130_fd_pr__nfet_01v8 ad=0.5742 pd=3.81 as=0.5742 ps=3.81 w=3.48 l=4.65
X147 VOUT.t1 a_n11986_8880.t24 VDD.t60 VDD.t59 sky130_fd_pr__pfet_01v8 ad=0.33165 pd=2.34 as=0.7839 ps=4.8 w=2.01 l=5.87
X148 CS_BIAS.t1 CS_BIAS.t0 GND.t154 GND.t11 sky130_fd_pr__nfet_01v8 ad=1.3572 pd=7.74 as=0.5742 ps=3.81 w=3.48 l=4.65
X149 VOUT.t39 a_n3584_7550.t0 sky130_fd_pr__cap_mim_m3_1 l=10.17 w=15.34
X150 a_n11986_8880.t6 a_n5004_9136.t44 a_n3584_7550.t3 VDD.t77 sky130_fd_pr__pfet_01v8 ad=0.6996 pd=4.57 as=1.6536 ps=9.26 w=4.24 l=2.43
X151 VDD.t58 a_n11986_8880.t25 VOUT.t0 VDD.t57 sky130_fd_pr__pfet_01v8 ad=0.33165 pd=2.34 as=0.33165 ps=2.34 w=2.01 l=5.87
X152 VDD.t76 a_n5004_9136.t45 a_n5082_9332.t0 VDD.t75 sky130_fd_pr__pfet_01v8 ad=0.6996 pd=4.57 as=0.6996 ps=4.57 w=4.24 l=2.43
X153 VDD.t3 VDD.t0 VDD.t2 VDD.t1 sky130_fd_pr__pfet_01v8 ad=0.7839 pd=4.8 as=0 ps=0 w=2.01 l=5.87
R0 a_n5004_9136.n11 a_n5004_9136.n27 15.8745
R1 a_n5004_9136.n9 a_n5004_9136.n28 15.8745
R2 a_n5004_9136.n0 a_n5004_9136.n29 15.8745
R3 a_n5004_9136.n8 a_n5004_9136.n0 6.564
R4 a_n5004_9136.n4 a_n5004_9136.n3 6.56383
R5 a_n5004_9136.n3 a_n5004_9136.n30 15.8745
R6 a_n5004_9136.n21 a_n5004_9136.n3 6.56383
R7 a_n5004_9136.n3 a_n5004_9136.n31 15.8745
R8 a_n5004_9136.n36 a_n5004_9136.n5 74.9385
R9 a_n5004_9136.n5 a_n5004_9136.n32 15.8745
R10 a_n5004_9136.n6 a_n5004_9136.n33 15.8745
R11 a_n5004_9136.n7 a_n5004_9136.n6 6.564
R12 a_n5004_9136.n1 a_n5004_9136.n34 15.8745
R13 a_n5004_9136.n24 a_n5004_9136.t17 106.963
R14 a_n5004_9136.n25 a_n5004_9136.t9 106.963
R15 a_n5004_9136.n25 a_n5004_9136.t21 105.775
R16 a_n5004_9136.n24 a_n5004_9136.t15 105.773
R17 a_n5004_9136.n2 a_n5004_9136.n1 6.56383
R18 a_n5004_9136.n6 a_n5004_9136.n22 6.56383
R19 a_n5004_9136.n5 a_n5004_9136.n15 6.564
R20 a_n5004_9136.n6 a_n5004_9136.n35 15.4804
R21 a_n5004_9136.n3 a_n5004_9136.n16 6.564
R22 a_n5004_9136.n3 a_n5004_9136.n17 6.564
R23 a_n5004_9136.n9 a_n5004_9136.n10 6.564
R24 a_n5004_9136.n11 a_n5004_9136.n12 6.564
R25 a_n5004_9136.n11 a_n5004_9136.n18 6.56383
R26 a_n5004_9136.n0 a_n5004_9136.n20 6.56383
R27 a_n5004_9136.n24 a_n5004_9136.n38 98.1078
R28 a_n5004_9136.n25 a_n5004_9136.n49 98.1078
R29 a_n5004_9136.n56 a_n5004_9136.t3 93.0454
R30 a_n5004_9136.n26 a_n5004_9136.t1 92.2278
R31 a_n5004_9136.n57 a_n5004_9136.n26 87.7061
R32 a_n5004_9136.n56 a_n5004_9136.n55 87.706
R33 a_n5004_9136.n14 a_n5004_9136.t20 74.392
R34 a_n5004_9136.n47 a_n5004_9136.t18 42.0515
R35 a_n5004_9136.n48 a_n5004_9136.t12 42.0515
R36 a_n5004_9136.n2 a_n5004_9136.t8 74.3922
R37 a_n5004_9136.n7 a_n5004_9136.t36 74.392
R38 a_n5004_9136.n53 a_n5004_9136.t31 42.0515
R39 a_n5004_9136.n39 a_n5004_9136.t34 42.0515
R40 a_n5004_9136.n22 a_n5004_9136.t30 74.3922
R41 a_n5004_9136.n15 a_n5004_9136.t33 74.392
R42 a_n5004_9136.n52 a_n5004_9136.t45 42.0515
R43 a_n5004_9136.n40 a_n5004_9136.t40 42.0515
R44 a_n5004_9136.n35 a_n5004_9136.t42 66.8303
R45 a_n5004_9136.n16 a_n5004_9136.t35 74.392
R46 a_n5004_9136.n51 a_n5004_9136.t37 42.0515
R47 a_n5004_9136.n41 a_n5004_9136.t43 42.0515
R48 a_n5004_9136.n21 a_n5004_9136.t26 74.3922
R49 a_n5004_9136.n17 a_n5004_9136.t38 74.392
R50 a_n5004_9136.n50 a_n5004_9136.t41 42.0515
R51 a_n5004_9136.n42 a_n5004_9136.t23 42.0515
R52 a_n5004_9136.n4 a_n5004_9136.t27 74.3922
R53 a_n5004_9136.n10 a_n5004_9136.t16 74.392
R54 a_n5004_9136.n44 a_n5004_9136.t6 42.0515
R55 a_n5004_9136.n45 a_n5004_9136.t10 42.0515
R56 a_n5004_9136.n19 a_n5004_9136.t14 74.3922
R57 a_n5004_9136.n12 a_n5004_9136.t32 74.392
R58 a_n5004_9136.n43 a_n5004_9136.t39 42.0515
R59 a_n5004_9136.n46 a_n5004_9136.t24 42.0515
R60 a_n5004_9136.n18 a_n5004_9136.t22 74.3922
R61 a_n5004_9136.n8 a_n5004_9136.t28 74.392
R62 a_n5004_9136.n37 a_n5004_9136.t29 42.0515
R63 a_n5004_9136.n54 a_n5004_9136.t25 42.0515
R64 a_n5004_9136.n20 a_n5004_9136.t44 74.3922
R65 a_n5004_9136.n26 a_n5004_9136.n56 29.3882
R66 a_n5004_9136.n48 a_n5004_9136.n34 60.8154
R67 a_n5004_9136.n53 a_n5004_9136.n7 53.9331
R68 a_n5004_9136.n39 a_n5004_9136.n33 60.8154
R69 a_n5004_9136.n40 a_n5004_9136.n32 60.8154
R70 a_n5004_9136.n35 a_n5004_9136.n36 86.3406
R71 a_n5004_9136.n41 a_n5004_9136.n31 60.8154
R72 a_n5004_9136.n21 a_n5004_9136.n41 53.9331
R73 a_n5004_9136.n42 a_n5004_9136.n30 60.8154
R74 a_n5004_9136.n4 a_n5004_9136.n42 53.9331
R75 a_n5004_9136.n45 a_n5004_9136.n28 60.8154
R76 a_n5004_9136.n46 a_n5004_9136.n27 60.8154
R77 a_n5004_9136.n8 a_n5004_9136.n37 53.9331
R78 a_n5004_9136.n54 a_n5004_9136.n29 60.8154
R79 a_n5004_9136.n34 a_n5004_9136.n47 60.8156
R80 a_n5004_9136.n33 a_n5004_9136.n53 60.8156
R81 a_n5004_9136.n32 a_n5004_9136.n52 60.8156
R82 a_n5004_9136.n31 a_n5004_9136.n51 60.8156
R83 a_n5004_9136.n30 a_n5004_9136.n50 60.8156
R84 a_n5004_9136.n28 a_n5004_9136.n44 60.8156
R85 a_n5004_9136.n27 a_n5004_9136.n43 60.8156
R86 a_n5004_9136.n29 a_n5004_9136.n37 60.8156
R87 a_n5004_9136.n26 a_n5004_9136.n1 24.7357
R88 a_n5004_9136.n23 a_n5004_9136.n11 12.7766
R89 a_n5004_9136.n0 a_n5004_9136.n13 12.572
R90 a_n5004_9136.n23 a_n5004_9136.n1 11.2671
R91 a_n5004_9136.n9 a_n5004_9136.n13 9.23493
R92 a_n5004_9136.n38 a_n5004_9136.t7 7.66677
R93 a_n5004_9136.n38 a_n5004_9136.t11 7.66677
R94 a_n5004_9136.n49 a_n5004_9136.t19 7.66677
R95 a_n5004_9136.n49 a_n5004_9136.t13 7.66677
R96 a_n5004_9136.n14 a_n5004_9136.n47 53.9331
R97 a_n5004_9136.n48 a_n5004_9136.n2 53.9331
R98 a_n5004_9136.n22 a_n5004_9136.n39 53.9331
R99 a_n5004_9136.n52 a_n5004_9136.n15 53.9331
R100 a_n5004_9136.n36 a_n5004_9136.n40 17.328
R101 a_n5004_9136.n51 a_n5004_9136.n16 53.9331
R102 a_n5004_9136.n50 a_n5004_9136.n17 53.9331
R103 a_n5004_9136.n10 a_n5004_9136.n44 53.9331
R104 a_n5004_9136.n45 a_n5004_9136.n19 53.9331
R105 a_n5004_9136.n12 a_n5004_9136.n43 53.9331
R106 a_n5004_9136.n46 a_n5004_9136.n18 53.9331
R107 a_n5004_9136.n54 a_n5004_9136.n20 53.9331
R108 a_n5004_9136.n1 a_n5004_9136.n14 11.3067
R109 a_n5004_9136.n13 a_n5004_9136.n24 10.265
R110 a_n5004_9136.n5 a_n5004_9136.n3 10.1802
R111 a_n5004_9136.n9 a_n5004_9136.n19 10.1498
R112 a_n5004_9136.n13 a_n5004_9136.n6 9.93947
R113 a_n5004_9136.n11 a_n5004_9136.n9 9.22578
R114 a_n5004_9136.n6 a_n5004_9136.n5 8.30986
R115 a_n5004_9136.n23 a_n5004_9136.n25 8.22464
R116 a_n5004_9136.n1 a_n5004_9136.n0 8.03113
R117 a_n5004_9136.n3 a_n5004_9136.n23 7.70273
R118 a_n5004_9136.n55 a_n5004_9136.t2 4.79469
R119 a_n5004_9136.n55 a_n5004_9136.t4 4.79469
R120 a_n5004_9136.n57 a_n5004_9136.t5 4.79469
R121 a_n5004_9136.t0 a_n5004_9136.n57 4.79469
R122 a_n3584_7550.n0 a_n3584_7550.t5 106.963
R123 a_n3584_7550.n2 a_n3584_7550.t3 106.963
R124 a_n3584_7550.t1 a_n3584_7550.n3 106.963
R125 a_n3584_7550.n3 a_n3584_7550.t10 105.775
R126 a_n3584_7550.n0 a_n3584_7550.t9 105.775
R127 a_n3584_7550.n0 a_n3584_7550.t4 105.775
R128 a_n3584_7550.n0 a_n3584_7550.t13 105.775
R129 a_n3584_7550.n2 a_n3584_7550.t8 105.775
R130 a_n3584_7550.n3 a_n3584_7550.n7 98.1078
R131 a_n3584_7550.n0 a_n3584_7550.n5 98.1078
R132 a_n3584_7550.n0 a_n3584_7550.n6 98.1078
R133 a_n3584_7550.n2 a_n3584_7550.n4 98.1078
R134 a_n3584_7550.n1 a_n3584_7550.n2 25.6573
R135 a_n3584_7550.n1 a_n3584_7550.n0 13.0174
R136 a_n3584_7550.n1 a_n3584_7550.t0 10.5469
R137 a_n3584_7550.n3 a_n3584_7550.n1 8.40352
R138 a_n3584_7550.n7 a_n3584_7550.t16 7.66677
R139 a_n3584_7550.n7 a_n3584_7550.t2 7.66677
R140 a_n3584_7550.n5 a_n3584_7550.t12 7.66677
R141 a_n3584_7550.n5 a_n3584_7550.t6 7.66677
R142 a_n3584_7550.n6 a_n3584_7550.t7 7.66677
R143 a_n3584_7550.n6 a_n3584_7550.t14 7.66677
R144 a_n3584_7550.n4 a_n3584_7550.t15 7.66677
R145 a_n3584_7550.n4 a_n3584_7550.t11 7.66677
R146 a_n11986_8880.n22 a_n11986_8880.n27 74.9655
R147 a_n11986_8880.n23 a_n11986_8880.n24 28.5074
R148 a_n11986_8880.n4 a_n11986_8880.n25 28.3431
R149 a_n11986_8880.n18 a_n11986_8880.n28 74.9655
R150 a_n11986_8880.n19 a_n11986_8880.n20 28.5074
R151 a_n11986_8880.n7 a_n11986_8880.n21 28.3431
R152 a_n11986_8880.n17 a_n11986_8880.n10 28.3431
R153 a_n11986_8880.n2 a_n11986_8880.n3 12.6734
R154 a_n11986_8880.n16 a_n11986_8880.n13 28.3431
R155 a_n11986_8880.n0 a_n11986_8880.n1 12.6734
R156 a_n11986_8880.n31 a_n11986_8880.n29 127.225
R157 a_n11986_8880.n50 a_n11986_8880.n49 127.225
R158 a_n11986_8880.n49 a_n11986_8880.n48 126.035
R159 a_n11986_8880.n31 a_n11986_8880.n30 126.035
R160 a_n11986_8880.n26 a_n11986_8880.t0 93.0457
R161 a_n11986_8880.n33 a_n11986_8880.t5 93.0454
R162 a_n11986_8880.n33 a_n11986_8880.n32 87.706
R163 a_n11986_8880.n26 a_n11986_8880.n34 87.4336
R164 a_n11986_8880.n43 a_n11986_8880.n42 63.6066
R165 a_n11986_8880.n41 a_n11986_8880.n40 63.6066
R166 a_n11986_8880.n38 a_n11986_8880.n37 63.6066
R167 a_n11986_8880.n36 a_n11986_8880.n35 63.6066
R168 a_n11986_8880.n5 a_n11986_8880.n6 25.329
R169 a_n11986_8880.n8 a_n11986_8880.n9 25.329
R170 a_n11986_8880.n11 a_n11986_8880.n12 25.329
R171 a_n11986_8880.n14 a_n11986_8880.n15 25.329
R172 a_n11986_8880.n37 a_n11986_8880.t16 41.0691
R173 a_n11986_8880.n35 a_n11986_8880.t17 41.0691
R174 a_n11986_8880.n42 a_n11986_8880.t14 41.0687
R175 a_n11986_8880.n40 a_n11986_8880.t22 41.0687
R176 a_n11986_8880.n26 a_n11986_8880.n33 30.6721
R177 a_n11986_8880.n49 a_n11986_8880.n47 29.9047
R178 a_n11986_8880.n17 a_n11986_8880.n3 125.487
R179 a_n11986_8880.n16 a_n11986_8880.n1 125.487
R180 a_n11986_8880.n25 a_n11986_8880.n6 80.6698
R181 a_n11986_8880.n24 a_n11986_8880.n25 114.472
R182 a_n11986_8880.n24 a_n11986_8880.n27 65.1634
R183 a_n11986_8880.n43 a_n11986_8880.n27 23.6056
R184 a_n11986_8880.n21 a_n11986_8880.n9 80.6698
R185 a_n11986_8880.n20 a_n11986_8880.n21 114.472
R186 a_n11986_8880.n20 a_n11986_8880.n28 65.1634
R187 a_n11986_8880.n41 a_n11986_8880.n28 23.6056
R188 a_n11986_8880.n17 a_n11986_8880.n12 80.6698
R189 a_n11986_8880.n16 a_n11986_8880.n15 80.6698
R190 a_n11986_8880.n47 a_n11986_8880.n31 21.1173
R191 a_n11986_8880.n3 a_n11986_8880.n38 52.5736
R192 a_n11986_8880.n1 a_n11986_8880.n36 52.5736
R193 a_n11986_8880.n46 a_n11986_8880.n26 12.6334
R194 a_n11986_8880.n47 a_n11986_8880.n46 11.4887
R195 a_n11986_8880.n45 a_n11986_8880.n39 9.04282
R196 a_n11986_8880.n45 a_n11986_8880.n44 8.77084
R197 a_n11986_8880.n6 a_n11986_8880.t19 19.5352
R198 a_n11986_8880.n43 a_n11986_8880.t23 8.2528
R199 a_n11986_8880.n9 a_n11986_8880.t20 19.5352
R200 a_n11986_8880.n41 a_n11986_8880.t25 8.2528
R201 a_n11986_8880.n38 a_n11986_8880.t18 8.2528
R202 a_n11986_8880.n12 a_n11986_8880.t15 19.5352
R203 a_n11986_8880.n36 a_n11986_8880.t21 8.2528
R204 a_n11986_8880.n15 a_n11986_8880.t24 19.5352
R205 a_n11986_8880.n48 a_n11986_8880.t8 7.66677
R206 a_n11986_8880.n48 a_n11986_8880.t7 7.66677
R207 a_n11986_8880.n30 a_n11986_8880.t11 7.66677
R208 a_n11986_8880.n30 a_n11986_8880.t6 7.66677
R209 a_n11986_8880.n29 a_n11986_8880.t10 7.66677
R210 a_n11986_8880.n29 a_n11986_8880.t9 7.66677
R211 a_n11986_8880.n50 a_n11986_8880.t12 7.66677
R212 a_n11986_8880.t13 a_n11986_8880.n50 7.66677
R213 a_n11986_8880.n44 a_n11986_8880.n8 7.37588
R214 a_n11986_8880.n39 a_n11986_8880.n14 7.37588
R215 a_n11986_8880.n44 a_n11986_8880.n5 5.57285
R216 a_n11986_8880.n39 a_n11986_8880.n11 5.57285
R217 a_n11986_8880.n34 a_n11986_8880.t3 4.79469
R218 a_n11986_8880.n34 a_n11986_8880.t1 4.79469
R219 a_n11986_8880.n32 a_n11986_8880.t4 4.79469
R220 a_n11986_8880.n32 a_n11986_8880.t2 4.79469
R221 a_n11986_8880.n46 a_n11986_8880.n45 3.4105
R222 a_n11986_8880.n10 a_n11986_8880.n2 1.32626
R223 a_n11986_8880.n13 a_n11986_8880.n0 1.32626
R224 a_n11986_8880.n14 a_n11986_8880.n13 1.2602
R225 a_n11986_8880.n11 a_n11986_8880.n10 1.2602
R226 a_n11986_8880.n8 a_n11986_8880.n7 1.0708
R227 a_n11986_8880.n5 a_n11986_8880.n4 1.0708
R228 a_n11986_8880.n2 a_n11986_8880.n37 0.986657
R229 a_n11986_8880.n0 a_n11986_8880.n35 0.986657
R230 a_n11986_8880.n22 a_n11986_8880.n42 0.986652
R231 a_n11986_8880.n18 a_n11986_8880.n40 0.986652
R232 a_n11986_8880.n4 a_n11986_8880.n23 0.758076
R233 a_n11986_8880.n23 a_n11986_8880.n22 0.758076
R234 a_n11986_8880.n7 a_n11986_8880.n19 0.758076
R235 a_n11986_8880.n19 a_n11986_8880.n18 0.758076
R236 VDD.n28 VDD.n26 756.745
R237 VDD.n19 VDD.n17 756.745
R238 VDD.n1112 VDD.n1110 756.745
R239 VDD.n1103 VDD.n1101 756.745
R240 VDD.n29 VDD.n28 585
R241 VDD.n20 VDD.n19 585
R242 VDD.n1113 VDD.n1112 585
R243 VDD.n1104 VDD.n1103 585
R244 VDD.t63 VDD.n27 417.779
R245 VDD.t74 VDD.n18 417.779
R246 VDD.t60 VDD.n1111 417.779
R247 VDD.t73 VDD.n1102 417.779
R248 VDD.n2709 VDD.n127 411.221
R249 VDD.n156 VDD.n129 411.221
R250 VDD.n2475 VDD.n275 411.221
R251 VDD.n2473 VDD.n2402 411.221
R252 VDD.n1253 VDD.n699 411.221
R253 VDD.n1317 VDD.n689 411.221
R254 VDD.n965 VDD.n894 411.221
R255 VDD.n967 VDD.n892 411.221
R256 VDD.n898 VDD.t48 368.774
R257 VDD.n913 VDD.t11 368.774
R258 VDD.n2414 VDD.t22 368.774
R259 VDD.n2433 VDD.t35 368.774
R260 VDD.n158 VDD.t6 368.774
R261 VDD.n2690 VDD.t13 368.774
R262 VDD.n1264 VDD.t2 368.774
R263 VDD.n690 VDD.t31 368.774
R264 VDD.n2133 VDD.n1863 305.854
R265 VDD.n2399 VDD.n298 305.854
R266 VDD.n2358 VDD.n2357 305.854
R267 VDD.n2092 VDD.n1860 305.854
R268 VDD.n1857 VDD.n498 305.854
R269 VDD.n1816 VDD.n1815 305.854
R270 VDD.n1550 VDD.n1320 305.854
R271 VDD.n1591 VDD.n1452 305.854