* NGSPICE file created from diff_pair_sample_1702.ext - technology: sky130A

.subckt diff_pair_sample_1702 VTAIL VN VP B VDD2 VDD1
X0 B.t23 B.t21 B.t22 B.t18 sky130_fd_pr__nfet_01v8 ad=7.1136 pd=37.26 as=0 ps=0 w=18.24 l=1.87
X1 VDD2.t9 VN.t0 VTAIL.t16 B.t8 sky130_fd_pr__nfet_01v8 ad=3.0096 pd=18.57 as=7.1136 ps=37.26 w=18.24 l=1.87
X2 VDD2.t8 VN.t1 VTAIL.t10 B.t6 sky130_fd_pr__nfet_01v8 ad=7.1136 pd=37.26 as=3.0096 ps=18.57 w=18.24 l=1.87
X3 VDD1.t9 VP.t0 VTAIL.t5 B.t2 sky130_fd_pr__nfet_01v8 ad=3.0096 pd=18.57 as=3.0096 ps=18.57 w=18.24 l=1.87
X4 VDD1.t8 VP.t1 VTAIL.t1 B.t4 sky130_fd_pr__nfet_01v8 ad=3.0096 pd=18.57 as=3.0096 ps=18.57 w=18.24 l=1.87
X5 VTAIL.t0 VP.t2 VDD1.t7 B.t1 sky130_fd_pr__nfet_01v8 ad=3.0096 pd=18.57 as=3.0096 ps=18.57 w=18.24 l=1.87
X6 VTAIL.t12 VN.t2 VDD2.t7 B.t0 sky130_fd_pr__nfet_01v8 ad=3.0096 pd=18.57 as=3.0096 ps=18.57 w=18.24 l=1.87
X7 VDD2.t6 VN.t3 VTAIL.t18 B.t5 sky130_fd_pr__nfet_01v8 ad=7.1136 pd=37.26 as=3.0096 ps=18.57 w=18.24 l=1.87
X8 B.t20 B.t17 B.t19 B.t18 sky130_fd_pr__nfet_01v8 ad=7.1136 pd=37.26 as=0 ps=0 w=18.24 l=1.87
X9 VTAIL.t15 VN.t4 VDD2.t5 B.t9 sky130_fd_pr__nfet_01v8 ad=3.0096 pd=18.57 as=3.0096 ps=18.57 w=18.24 l=1.87
X10 B.t16 B.t14 B.t15 B.t11 sky130_fd_pr__nfet_01v8 ad=7.1136 pd=37.26 as=0 ps=0 w=18.24 l=1.87
X11 B.t13 B.t10 B.t12 B.t11 sky130_fd_pr__nfet_01v8 ad=7.1136 pd=37.26 as=0 ps=0 w=18.24 l=1.87
X12 VTAIL.t9 VP.t3 VDD1.t6 B.t9 sky130_fd_pr__nfet_01v8 ad=3.0096 pd=18.57 as=3.0096 ps=18.57 w=18.24 l=1.87
X13 VDD2.t4 VN.t5 VTAIL.t14 B.t4 sky130_fd_pr__nfet_01v8 ad=3.0096 pd=18.57 as=3.0096 ps=18.57 w=18.24 l=1.87
X14 VTAIL.t8 VP.t4 VDD1.t5 B.t3 sky130_fd_pr__nfet_01v8 ad=3.0096 pd=18.57 as=3.0096 ps=18.57 w=18.24 l=1.87
X15 VTAIL.t19 VN.t6 VDD2.t3 B.t1 sky130_fd_pr__nfet_01v8 ad=3.0096 pd=18.57 as=3.0096 ps=18.57 w=18.24 l=1.87
X16 VDD2.t2 VN.t7 VTAIL.t17 B.t2 sky130_fd_pr__nfet_01v8 ad=3.0096 pd=18.57 as=3.0096 ps=18.57 w=18.24 l=1.87
X17 VDD2.t1 VN.t8 VTAIL.t11 B.t7 sky130_fd_pr__nfet_01v8 ad=3.0096 pd=18.57 as=7.1136 ps=37.26 w=18.24 l=1.87
X18 VDD1.t4 VP.t5 VTAIL.t6 B.t6 sky130_fd_pr__nfet_01v8 ad=7.1136 pd=37.26 as=3.0096 ps=18.57 w=18.24 l=1.87
X19 VDD1.t3 VP.t6 VTAIL.t3 B.t7 sky130_fd_pr__nfet_01v8 ad=3.0096 pd=18.57 as=7.1136 ps=37.26 w=18.24 l=1.87
X20 VDD1.t2 VP.t7 VTAIL.t4 B.t8 sky130_fd_pr__nfet_01v8 ad=3.0096 pd=18.57 as=7.1136 ps=37.26 w=18.24 l=1.87
X21 VTAIL.t13 VN.t9 VDD2.t0 B.t3 sky130_fd_pr__nfet_01v8 ad=3.0096 pd=18.57 as=3.0096 ps=18.57 w=18.24 l=1.87
X22 VTAIL.t2 VP.t8 VDD1.t1 B.t0 sky130_fd_pr__nfet_01v8 ad=3.0096 pd=18.57 as=3.0096 ps=18.57 w=18.24 l=1.87
X23 VDD1.t0 VP.t9 VTAIL.t7 B.t5 sky130_fd_pr__nfet_01v8 ad=7.1136 pd=37.26 as=3.0096 ps=18.57 w=18.24 l=1.87
R0 B.n1036 B.n1035 585
R1 B.n412 B.n152 585
R2 B.n411 B.n410 585
R3 B.n409 B.n408 585
R4 B.n407 B.n406 585
R5 B.n405 B.n404 585
R6 B.n403 B.n402 585
R7 B.n401 B.n400 585
R8 B.n399 B.n398 585
R9 B.n397 B.n396 585
R10 B.n395 B.n394 585
R11 B.n393 B.n392 585
R12 B.n391 B.n390 585
R13 B.n389 B.n388 585
R14 B.n387 B.n386 585
R15 B.n385 B.n384 585
R16 B.n383 B.n382 585
R17 B.n381 B.n380 585
R18 B.n379 B.n378 585
R19 B.n377 B.n376 585
R20 B.n375 B.n374 585
R21 B.n373 B.n372 585
R22 B.n371 B.n370 585
R23 B.n369 B.n368 585
R24 B.n367 B.n366 585
R25 B.n365 B.n364 585
R26 B.n363 B.n362 585
R27 B.n361 B.n360 585
R28 B.n359 B.n358 585
R29 B.n357 B.n356 585
R30 B.n355 B.n354 585
R31 B.n353 B.n352 585
R32 B.n351 B.n350 585
R33 B.n349 B.n348 585
R34 B.n347 B.n346 585
R35 B.n345 B.n344 585
R36 B.n343 B.n342 585
R37 B.n341 B.n340 585
R38 B.n339 B.n338 585
R39 B.n337 B.n336 585
R40 B.n335 B.n334 585
R41 B.n333 B.n332 585
R42 B.n331 B.n330 585
R43 B.n329 B.n328 585
R44 B.n327 B.n326 585
R45 B.n325 B.n324 585
R46 B.n323 B.n322 585
R47 B.n321 B.n320 585
R48 B.n319 B.n318 585
R49 B.n317 B.n316 585
R50 B.n315 B.n314 585
R51 B.n313 B.n312 585
R52 B.n311 B.n310 585
R53 B.n309 B.n308 585
R54 B.n307 B.n306 585
R55 B.n305 B.n304 585
R56 B.n303 B.n302 585
R57 B.n301 B.n300 585
R58 B.n299 B.n298 585
R59 B.n297 B.n296 585
R60 B.n295 B.n294 585
R61 B.n293 B.n292 585
R62 B.n291 B.n290 585
R63 B.n289 B.n288 585
R64 B.n287 B.n286 585
R65 B.n285 B.n284 585
R66 B.n283 B.n282 585
R67 B.n281 B.n280 585
R68 B.n279 B.n278 585
R69 B.n277 B.n276 585
R70 B.n275 B.n274 585
R71 B.n273 B.n272 585
R72 B.n271 B.n270 585
R73 B.n269 B.n268 585
R74 B.n267 B.n266 585
R75 B.n265 B.n264 585
R76 B.n263 B.n262 585
R77 B.n261 B.n260 585
R78 B.n259 B.n258 585
R79 B.n257 B.n256 585
R80 B.n255 B.n254 585
R81 B.n253 B.n252 585
R82 B.n251 B.n250 585
R83 B.n249 B.n248 585
R84 B.n247 B.n246 585
R85 B.n245 B.n244 585
R86 B.n243 B.n242 585
R87 B.n241 B.n240 585
R88 B.n239 B.n238 585
R89 B.n237 B.n236 585
R90 B.n235 B.n234 585
R91 B.n233 B.n232 585
R92 B.n231 B.n230 585
R93 B.n229 B.n228 585
R94 B.n227 B.n226 585
R95 B.n225 B.n224 585
R96 B.n223 B.n222 585
R97 B.n221 B.n220 585
R98 B.n219 B.n218 585
R99 B.n217 B.n216 585
R100 B.n215 B.n214 585
R101 B.n213 B.n212 585
R102 B.n211 B.n210 585
R103 B.n209 B.n208 585
R104 B.n207 B.n206 585
R105 B.n205 B.n204 585
R106 B.n203 B.n202 585
R107 B.n201 B.n200 585
R108 B.n199 B.n198 585
R109 B.n197 B.n196 585
R110 B.n195 B.n194 585
R111 B.n193 B.n192 585
R112 B.n191 B.n190 585
R113 B.n189 B.n188 585
R114 B.n187 B.n186 585
R115 B.n185 B.n184 585
R116 B.n183 B.n182 585
R117 B.n181 B.n180 585
R118 B.n179 B.n178 585
R119 B.n177 B.n176 585
R120 B.n175 B.n174 585
R121 B.n173 B.n172 585
R122 B.n171 B.n170 585
R123 B.n169 B.n168 585
R124 B.n167 B.n166 585
R125 B.n165 B.n164 585
R126 B.n163 B.n162 585
R127 B.n161 B.n160 585
R128 B.n88 B.n87 585
R129 B.n1041 B.n1040 585
R130 B.n1034 B.n153 585
R131 B.n153 B.n85 585
R132 B.n1033 B.n84 585
R133 B.n1045 B.n84 585
R134 B.n1032 B.n83 585
R135 B.n1046 B.n83 585
R136 B.n1031 B.n82 585
R137 B.n1047 B.n82 585
R138 B.n1030 B.n1029 585
R139 B.n1029 B.n78 585
R140 B.n1028 B.n77 585
R141 B.n1053 B.n77 585
R142 B.n1027 B.n76 585
R143 B.n1054 B.n76 585
R144 B.n1026 B.n75 585
R145 B.n1055 B.n75 585
R146 B.n1025 B.n1024 585
R147 B.n1024 B.n71 585
R148 B.n1023 B.n70 585
R149 B.n1061 B.n70 585
R150 B.n1022 B.n69 585
R151 B.n1062 B.n69 585
R152 B.n1021 B.n68 585
R153 B.n1063 B.n68 585
R154 B.n1020 B.n1019 585
R155 B.n1019 B.n64 585
R156 B.n1018 B.n63 585
R157 B.n1069 B.n63 585
R158 B.n1017 B.n62 585
R159 B.n1070 B.n62 585
R160 B.n1016 B.n61 585
R161 B.n1071 B.n61 585
R162 B.n1015 B.n1014 585
R163 B.n1014 B.n60 585
R164 B.n1013 B.n56 585
R165 B.n1077 B.n56 585
R166 B.n1012 B.n55 585
R167 B.n1078 B.n55 585
R168 B.n1011 B.n54 585
R169 B.n1079 B.n54 585
R170 B.n1010 B.n1009 585
R171 B.n1009 B.n50 585
R172 B.n1008 B.n49 585
R173 B.n1085 B.n49 585
R174 B.n1007 B.n48 585
R175 B.n1086 B.n48 585
R176 B.n1006 B.n47 585
R177 B.n1087 B.n47 585
R178 B.n1005 B.n1004 585
R179 B.n1004 B.n43 585
R180 B.n1003 B.n42 585
R181 B.n1093 B.n42 585
R182 B.n1002 B.n41 585
R183 B.n1094 B.n41 585
R184 B.n1001 B.n40 585
R185 B.n1095 B.n40 585
R186 B.n1000 B.n999 585
R187 B.n999 B.n36 585
R188 B.n998 B.n35 585
R189 B.n1101 B.n35 585
R190 B.n997 B.n34 585
R191 B.n1102 B.n34 585
R192 B.n996 B.n33 585
R193 B.n1103 B.n33 585
R194 B.n995 B.n994 585
R195 B.n994 B.n29 585
R196 B.n993 B.n28 585
R197 B.n1109 B.n28 585
R198 B.n992 B.n27 585
R199 B.n1110 B.n27 585
R200 B.n991 B.n26 585
R201 B.n1111 B.n26 585
R202 B.n990 B.n989 585
R203 B.n989 B.n22 585
R204 B.n988 B.n21 585
R205 B.n1117 B.n21 585
R206 B.n987 B.n20 585
R207 B.n1118 B.n20 585
R208 B.n986 B.n19 585
R209 B.n1119 B.n19 585
R210 B.n985 B.n984 585
R211 B.n984 B.n15 585
R212 B.n983 B.n14 585
R213 B.n1125 B.n14 585
R214 B.n982 B.n13 585
R215 B.n1126 B.n13 585
R216 B.n981 B.n12 585
R217 B.n1127 B.n12 585
R218 B.n980 B.n979 585
R219 B.n979 B.n8 585
R220 B.n978 B.n7 585
R221 B.n1133 B.n7 585
R222 B.n977 B.n6 585
R223 B.n1134 B.n6 585
R224 B.n976 B.n5 585
R225 B.n1135 B.n5 585
R226 B.n975 B.n974 585
R227 B.n974 B.n4 585
R228 B.n973 B.n413 585
R229 B.n973 B.n972 585
R230 B.n963 B.n414 585
R231 B.n415 B.n414 585
R232 B.n965 B.n964 585
R233 B.n966 B.n965 585
R234 B.n962 B.n419 585
R235 B.n423 B.n419 585
R236 B.n961 B.n960 585
R237 B.n960 B.n959 585
R238 B.n421 B.n420 585
R239 B.n422 B.n421 585
R240 B.n952 B.n951 585
R241 B.n953 B.n952 585
R242 B.n950 B.n428 585
R243 B.n428 B.n427 585
R244 B.n949 B.n948 585
R245 B.n948 B.n947 585
R246 B.n430 B.n429 585
R247 B.n431 B.n430 585
R248 B.n940 B.n939 585
R249 B.n941 B.n940 585
R250 B.n938 B.n436 585
R251 B.n436 B.n435 585
R252 B.n937 B.n936 585
R253 B.n936 B.n935 585
R254 B.n438 B.n437 585
R255 B.n439 B.n438 585
R256 B.n928 B.n927 585
R257 B.n929 B.n928 585
R258 B.n926 B.n444 585
R259 B.n444 B.n443 585
R260 B.n925 B.n924 585
R261 B.n924 B.n923 585
R262 B.n446 B.n445 585
R263 B.n447 B.n446 585
R264 B.n916 B.n915 585
R265 B.n917 B.n916 585
R266 B.n914 B.n452 585
R267 B.n452 B.n451 585
R268 B.n913 B.n912 585
R269 B.n912 B.n911 585
R270 B.n454 B.n453 585
R271 B.n455 B.n454 585
R272 B.n904 B.n903 585
R273 B.n905 B.n904 585
R274 B.n902 B.n459 585
R275 B.n463 B.n459 585
R276 B.n901 B.n900 585
R277 B.n900 B.n899 585
R278 B.n461 B.n460 585
R279 B.n462 B.n461 585
R280 B.n892 B.n891 585
R281 B.n893 B.n892 585
R282 B.n890 B.n468 585
R283 B.n468 B.n467 585
R284 B.n889 B.n888 585
R285 B.n888 B.n887 585
R286 B.n470 B.n469 585
R287 B.n880 B.n470 585
R288 B.n879 B.n878 585
R289 B.n881 B.n879 585
R290 B.n877 B.n475 585
R291 B.n475 B.n474 585
R292 B.n876 B.n875 585
R293 B.n875 B.n874 585
R294 B.n477 B.n476 585
R295 B.n478 B.n477 585
R296 B.n867 B.n866 585
R297 B.n868 B.n867 585
R298 B.n865 B.n483 585
R299 B.n483 B.n482 585
R300 B.n864 B.n863 585
R301 B.n863 B.n862 585
R302 B.n485 B.n484 585
R303 B.n486 B.n485 585
R304 B.n855 B.n854 585
R305 B.n856 B.n855 585
R306 B.n853 B.n490 585
R307 B.n494 B.n490 585
R308 B.n852 B.n851 585
R309 B.n851 B.n850 585
R310 B.n492 B.n491 585
R311 B.n493 B.n492 585
R312 B.n843 B.n842 585
R313 B.n844 B.n843 585
R314 B.n841 B.n499 585
R315 B.n499 B.n498 585
R316 B.n840 B.n839 585
R317 B.n839 B.n838 585
R318 B.n501 B.n500 585
R319 B.n502 B.n501 585
R320 B.n834 B.n833 585
R321 B.n505 B.n504 585
R322 B.n830 B.n829 585
R323 B.n831 B.n830 585
R324 B.n828 B.n570 585
R325 B.n827 B.n826 585
R326 B.n825 B.n824 585
R327 B.n823 B.n822 585
R328 B.n821 B.n820 585
R329 B.n819 B.n818 585
R330 B.n817 B.n816 585
R331 B.n815 B.n814 585
R332 B.n813 B.n812 585
R333 B.n811 B.n810 585
R334 B.n809 B.n808 585
R335 B.n807 B.n806 585
R336 B.n805 B.n804 585
R337 B.n803 B.n802 585
R338 B.n801 B.n800 585
R339 B.n799 B.n798 585
R340 B.n797 B.n796 585
R341 B.n795 B.n794 585
R342 B.n793 B.n792 585
R343 B.n791 B.n790 585
R344 B.n789 B.n788 585
R345 B.n787 B.n786 585
R346 B.n785 B.n784 585
R347 B.n783 B.n782 585
R348 B.n781 B.n780 585
R349 B.n779 B.n778 585
R350 B.n777 B.n776 585
R351 B.n775 B.n774 585
R352 B.n773 B.n772 585
R353 B.n771 B.n770 585
R354 B.n769 B.n768 585
R355 B.n767 B.n766 585
R356 B.n765 B.n764 585
R357 B.n763 B.n762 585
R358 B.n761 B.n760 585
R359 B.n759 B.n758 585
R360 B.n757 B.n756 585
R361 B.n755 B.n754 585
R362 B.n753 B.n752 585
R363 B.n751 B.n750 585
R364 B.n749 B.n748 585
R365 B.n747 B.n746 585
R366 B.n745 B.n744 585
R367 B.n743 B.n742 585
R368 B.n741 B.n740 585
R369 B.n739 B.n738 585
R370 B.n737 B.n736 585
R371 B.n735 B.n734 585
R372 B.n733 B.n732 585
R373 B.n731 B.n730 585
R374 B.n729 B.n728 585
R375 B.n727 B.n726 585
R376 B.n725 B.n724 585
R377 B.n723 B.n722 585
R378 B.n721 B.n720 585
R379 B.n719 B.n718 585
R380 B.n717 B.n716 585
R381 B.n714 B.n713 585
R382 B.n712 B.n711 585
R383 B.n710 B.n709 585
R384 B.n708 B.n707 585
R385 B.n706 B.n705 585
R386 B.n704 B.n703 585
R387 B.n702 B.n701 585
R388 B.n700 B.n699 585
R389 B.n698 B.n697 585
R390 B.n696 B.n695 585
R391 B.n693 B.n692 585
R392 B.n691 B.n690 585
R393 B.n689 B.n688 585
R394 B.n687 B.n686 585
R395 B.n685 B.n684 585
R396 B.n683 B.n682 585
R397 B.n681 B.n680 585
R398 B.n679 B.n678 585
R399 B.n677 B.n676 585
R400 B.n675 B.n674 585
R401 B.n673 B.n672 585
R402 B.n671 B.n670 585
R403 B.n669 B.n668 585
R404 B.n667 B.n666 585
R405 B.n665 B.n664 585
R406 B.n663 B.n662 585
R407 B.n661 B.n660 585
R408 B.n659 B.n658 585
R409 B.n657 B.n656 585
R410 B.n655 B.n654 585
R411 B.n653 B.n652 585
R412 B.n651 B.n650 585
R413 B.n649 B.n648 585
R414 B.n647 B.n646 585
R415 B.n645 B.n644 585
R416 B.n643 B.n642 585
R417 B.n641 B.n640 585
R418 B.n639 B.n638 585
R419 B.n637 B.n636 585
R420 B.n635 B.n634 585
R421 B.n633 B.n632 585
R422 B.n631 B.n630 585
R423 B.n629 B.n628 585
R424 B.n627 B.n626 585
R425 B.n625 B.n624 585
R426 B.n623 B.n622 585
R427 B.n621 B.n620 585
R428 B.n619 B.n618 585
R429 B.n617 B.n616 585
R430 B.n615 B.n614 585
R431 B.n613 B.n612 585
R432 B.n611 B.n610 585
R433 B.n609 B.n608 585
R434 B.n607 B.n606 585
R435 B.n605 B.n604 585
R436 B.n603 B.n602 585
R437 B.n601 B.n600 585
R438 B.n599 B.n598 585
R439 B.n597 B.n596 585
R440 B.n595 B.n594 585
R441 B.n593 B.n592 585
R442 B.n591 B.n590 585
R443 B.n589 B.n588 585
R444 B.n587 B.n586 585
R445 B.n585 B.n584 585
R446 B.n583 B.n582 585
R447 B.n581 B.n580 585
R448 B.n579 B.n578 585
R449 B.n577 B.n576 585
R450 B.n575 B.n569 585
R451 B.n831 B.n569 585
R452 B.n835 B.n503 585
R453 B.n503 B.n502 585
R454 B.n837 B.n836 585
R455 B.n838 B.n837 585
R456 B.n497 B.n496 585
R457 B.n498 B.n497 585
R458 B.n846 B.n845 585
R459 B.n845 B.n844 585
R460 B.n847 B.n495 585
R461 B.n495 B.n493 585
R462 B.n849 B.n848 585
R463 B.n850 B.n849 585
R464 B.n489 B.n488 585
R465 B.n494 B.n489 585
R466 B.n858 B.n857 585
R467 B.n857 B.n856 585
R468 B.n859 B.n487 585
R469 B.n487 B.n486 585
R470 B.n861 B.n860 585
R471 B.n862 B.n861 585
R472 B.n481 B.n480 585
R473 B.n482 B.n481 585
R474 B.n870 B.n869 585
R475 B.n869 B.n868 585
R476 B.n871 B.n479 585
R477 B.n479 B.n478 585
R478 B.n873 B.n872 585
R479 B.n874 B.n873 585
R480 B.n473 B.n472 585
R481 B.n474 B.n473 585
R482 B.n883 B.n882 585
R483 B.n882 B.n881 585
R484 B.n884 B.n471 585
R485 B.n880 B.n471 585
R486 B.n886 B.n885 585
R487 B.n887 B.n886 585
R488 B.n466 B.n465 585
R489 B.n467 B.n466 585
R490 B.n895 B.n894 585
R491 B.n894 B.n893 585
R492 B.n896 B.n464 585
R493 B.n464 B.n462 585
R494 B.n898 B.n897 585
R495 B.n899 B.n898 585
R496 B.n458 B.n457 585
R497 B.n463 B.n458 585
R498 B.n907 B.n906 585
R499 B.n906 B.n905 585
R500 B.n908 B.n456 585
R501 B.n456 B.n455 585
R502 B.n910 B.n909 585
R503 B.n911 B.n910 585
R504 B.n450 B.n449 585
R505 B.n451 B.n450 585
R506 B.n919 B.n918 585
R507 B.n918 B.n917 585
R508 B.n920 B.n448 585
R509 B.n448 B.n447 585
R510 B.n922 B.n921 585
R511 B.n923 B.n922 585
R512 B.n442 B.n441 585
R513 B.n443 B.n442 585
R514 B.n931 B.n930 585
R515 B.n930 B.n929 585
R516 B.n932 B.n440 585
R517 B.n440 B.n439 585
R518 B.n934 B.n933 585
R519 B.n935 B.n934 585
R520 B.n434 B.n433 585
R521 B.n435 B.n434 585
R522 B.n943 B.n942 585
R523 B.n942 B.n941 585
R524 B.n944 B.n432 585
R525 B.n432 B.n431 585
R526 B.n946 B.n945 585
R527 B.n947 B.n946 585
R528 B.n426 B.n425 585
R529 B.n427 B.n426 585
R530 B.n955 B.n954 585
R531 B.n954 B.n953 585
R532 B.n956 B.n424 585
R533 B.n424 B.n422 585
R534 B.n958 B.n957 585
R535 B.n959 B.n958 585
R536 B.n418 B.n417 585
R537 B.n423 B.n418 585
R538 B.n968 B.n967 585
R539 B.n967 B.n966 585
R540 B.n969 B.n416 585
R541 B.n416 B.n415 585
R542 B.n971 B.n970 585
R543 B.n972 B.n971 585
R544 B.n2 B.n0 585
R545 B.n4 B.n2 585
R546 B.n3 B.n1 585
R547 B.n1134 B.n3 585
R548 B.n1132 B.n1131 585
R549 B.n1133 B.n1132 585
R550 B.n1130 B.n9 585
R551 B.n9 B.n8 585
R552 B.n1129 B.n1128 585
R553 B.n1128 B.n1127 585
R554 B.n11 B.n10 585
R555 B.n1126 B.n11 585
R556 B.n1124 B.n1123 585
R557 B.n1125 B.n1124 585
R558 B.n1122 B.n16 585
R559 B.n16 B.n15 585
R560 B.n1121 B.n1120 585
R561 B.n1120 B.n1119 585
R562 B.n18 B.n17 585
R563 B.n1118 B.n18 585
R564 B.n1116 B.n1115 585
R565 B.n1117 B.n1116 585
R566 B.n1114 B.n23 585
R567 B.n23 B.n22 585
R568 B.n1113 B.n1112 585
R569 B.n1112 B.n1111 585
R570 B.n25 B.n24 585
R571 B.n1110 B.n25 585
R572 B.n1108 B.n1107 585
R573 B.n1109 B.n1108 585
R574 B.n1106 B.n30 585
R575 B.n30 B.n29 585
R576 B.n1105 B.n1104 585
R577 B.n1104 B.n1103 585
R578 B.n32 B.n31 585
R579 B.n1102 B.n32 585
R580 B.n1100 B.n1099 585
R581 B.n1101 B.n1100 585
R582 B.n1098 B.n37 585
R583 B.n37 B.n36 585
R584 B.n1097 B.n1096 585
R585 B.n1096 B.n1095 585
R586 B.n39 B.n38 585
R587 B.n1094 B.n39 585
R588 B.n1092 B.n1091 585
R589 B.n1093 B.n1092 585
R590 B.n1090 B.n44 585
R591 B.n44 B.n43 585
R592 B.n1089 B.n1088 585
R593 B.n1088 B.n1087 585
R594 B.n46 B.n45 585
R595 B.n1086 B.n46 585
R596 B.n1084 B.n1083 585
R597 B.n1085 B.n1084 585
R598 B.n1082 B.n51 585
R599 B.n51 B.n50 585
R600 B.n1081 B.n1080 585
R601 B.n1080 B.n1079 585
R602 B.n53 B.n52 585
R603 B.n1078 B.n53 585
R604 B.n1076 B.n1075 585
R605 B.n1077 B.n1076 585
R606 B.n1074 B.n57 585
R607 B.n60 B.n57 585
R608 B.n1073 B.n1072 585
R609 B.n1072 B.n1071 585
R610 B.n59 B.n58 585
R611 B.n1070 B.n59 585
R612 B.n1068 B.n1067 585
R613 B.n1069 B.n1068 585
R614 B.n1066 B.n65 585
R615 B.n65 B.n64 585
R616 B.n1065 B.n1064 585
R617 B.n1064 B.n1063 585
R618 B.n67 B.n66 585
R619 B.n1062 B.n67 585
R620 B.n1060 B.n1059 585
R621 B.n1061 B.n1060 585
R622 B.n1058 B.n72 585
R623 B.n72 B.n71 585
R624 B.n1057 B.n1056 585
R625 B.n1056 B.n1055 585
R626 B.n74 B.n73 585
R627 B.n1054 B.n74 585
R628 B.n1052 B.n1051 585
R629 B.n1053 B.n1052 585
R630 B.n1050 B.n79 585
R631 B.n79 B.n78 585
R632 B.n1049 B.n1048 585
R633 B.n1048 B.n1047 585
R634 B.n81 B.n80 585
R635 B.n1046 B.n81 585
R636 B.n1044 B.n1043 585
R637 B.n1045 B.n1044 585
R638 B.n1042 B.n86 585
R639 B.n86 B.n85 585
R640 B.n1137 B.n1136 585
R641 B.n1136 B.n1135 585
R642 B.n833 B.n503 449.257
R643 B.n1040 B.n86 449.257
R644 B.n569 B.n501 449.257
R645 B.n1036 B.n153 449.257
R646 B.n573 B.t10 441.668
R647 B.n571 B.t14 441.668
R648 B.n157 B.t17 441.668
R649 B.n154 B.t21 441.668
R650 B.n573 B.t13 432.413
R651 B.n154 B.t22 432.413
R652 B.n571 B.t16 432.413
R653 B.n157 B.t19 432.413
R654 B.n574 B.t12 389.748
R655 B.n155 B.t23 389.748
R656 B.n572 B.t15 389.748
R657 B.n158 B.t20 389.748
R658 B.n1038 B.n1037 256.663
R659 B.n1038 B.n151 256.663
R660 B.n1038 B.n150 256.663
R661 B.n1038 B.n149 256.663
R662 B.n1038 B.n148 256.663
R663 B.n1038 B.n147 256.663
R664 B.n1038 B.n146 256.663
R665 B.n1038 B.n145 256.663
R666 B.n1038 B.n144 256.663
R667 B.n1038 B.n143 256.663
R668 B.n1038 B.n142 256.663
R669 B.n1038 B.n141 256.663
R670 B.n1038 B.n140 256.663
R671 B.n1038 B.n139 256.663
R672 B.n1038 B.n138 256.663
R673 B.n1038 B.n137 256.663
R674 B.n1038 B.n136 256.663
R675 B.n1038 B.n135 256.663
R676 B.n1038 B.n134 256.663
R677 B.n1038 B.n133 256.663
R678 B.n1038 B.n132 256.663
R679 B.n1038 B.n131 256.663
R680 B.n1038 B.n130 256.663
R681 B.n1038 B.n129 256.663
R682 B.n1038 B.n128 256.663
R683 B.n1038 B.n127 256.663
R684 B.n1038 B.n126 256.663
R685 B.n1038 B.n125 256.663
R686 B.n1038 B.n124 256.663
R687 B.n1038 B.n123 256.663
R688 B.n1038 B.n122 256.663
R689 B.n1038 B.n121 256.663
R690 B.n1038 B.n120 256.663
R691 B.n1038 B.n119 256.663
R692 B.n1038 B.n118 256.663
R693 B.n1038 B.n117 256.663
R694 B.n1038 B.n116 256.663
R695 B.n1038 B.n115 256.663
R696 B.n1038 B.n114 256.663
R697 B.n1038 B.n113 256.663
R698 B.n1038 B.n112 256.663
R699 B.n1038 B.n111 256.663
R700 B.n1038 B.n110 256.663
R701 B.n1038 B.n109 256.663
R702 B.n1038 B.n108 256.663
R703 B.n1038 B.n107 256.663
R704 B.n1038 B.n106 256.663
R705 B.n1038 B.n105 256.663
R706 B.n1038 B.n104 256.663
R707 B.n1038 B.n103 256.663
R708 B.n1038 B.n102 256.663
R709 B.n1038 B.n101 256.663
R710 B.n1038 B.n100 256.663
R711 B.n1038 B.n99 256.663
R712 B.n1038 B.n98 256.663
R713 B.n1038 B.n97 256.663
R714 B.n1038 B.n96 256.663
R715 B.n1038 B.n95 256.663
R716 B.n1038 B.n94 256.663
R717 B.n1038 B.n93 256.663
R718 B.n1038 B.n92 256.663
R719 B.n1038 B.n91 256.663
R720 B.n1038 B.n90 256.663
R721 B.n1038 B.n89 256.663
R722 B.n1039 B.n1038 256.663
R723 B.n832 B.n831 256.663
R724 B.n831 B.n506 256.663
R725 B.n831 B.n507 256.663
R726 B.n831 B.n508 256.663
R727 B.n831 B.n509 256.663
R728 B.n831 B.n510 256.663
R729 B.n831 B.n511 256.663
R730 B.n831 B.n512 256.663
R731 B.n831 B.n513 256.663
R732 B.n831 B.n514 256.663
R733 B.n831 B.n515 256.663
R734 B.n831 B.n516 256.663
R735 B.n831 B.n517 256.663
R736 B.n831 B.n518 256.663
R737 B.n831 B.n519 256.663
R738 B.n831 B.n520 256.663
R739 B.n831 B.n521 256.663
R740 B.n831 B.n522 256.663
R741 B.n831 B.n523 256.663
R742 B.n831 B.n524 256.663
R743 B.n831 B.n525 256.663
R744 B.n831 B.n526 256.663
R745 B.n831 B.n527 256.663
R746 B.n831 B.n528 256.663
R747 B.n831 B.n529 256.663
R748 B.n831 B.n530 256.663
R749 B.n831 B.n531 256.663
R750 B.n831 B.n532 256.663
R751 B.n831 B.n533 256.663
R752 B.n831 B.n534 256.663
R753 B.n831 B.n535 256.663
R754 B.n831 B.n536 256.663
R755 B.n831 B.n537 256.663
R756 B.n831 B.n538 256.663
R757 B.n831 B.n539 256.663
R758 B.n831 B.n540 256.663
R759 B.n831 B.n541 256.663
R760 B.n831 B.n542 256.663
R761 B.n831 B.n543 256.663
R762 B.n831 B.n544 256.663
R763 B.n831 B.n545 256.663
R764 B.n831 B.n546 256.663
R765 B.n831 B.n547 256.663
R766 B.n831 B.n548 256.663
R767 B.n831 B.n549 256.663
R768 B.n831 B.n550 256.663
R769 B.n831 B.n551 256.663
R770 B.n831 B.n552 256.663
R771 B.n831 B.n553 256.663
R772 B.n831 B.n554 256.663
R773 B.n831 B.n555 256.663
R774 B.n831 B.n556 256.663
R775 B.n831 B.n557 256.663
R776 B.n831 B.n558 256.663
R777 B.n831 B.n559 256.663
R778 B.n831 B.n560 256.663
R779 B.n831 B.n561 256.663
R780 B.n831 B.n562 256.663
R781 B.n831 B.n563 256.663
R782 B.n831 B.n564 256.663
R783 B.n831 B.n565 256.663
R784 B.n831 B.n566 256.663
R785 B.n831 B.n567 256.663
R786 B.n831 B.n568 256.663
R787 B.n837 B.n503 163.367
R788 B.n837 B.n497 163.367
R789 B.n845 B.n497 163.367
R790 B.n845 B.n495 163.367
R791 B.n849 B.n495 163.367
R792 B.n849 B.n489 163.367
R793 B.n857 B.n489 163.367
R794 B.n857 B.n487 163.367
R795 B.n861 B.n487 163.367
R796 B.n861 B.n481 163.367
R797 B.n869 B.n481 163.367
R798 B.n869 B.n479 163.367
R799 B.n873 B.n479 163.367
R800 B.n873 B.n473 163.367
R801 B.n882 B.n473 163.367
R802 B.n882 B.n471 163.367
R803 B.n886 B.n471 163.367
R804 B.n886 B.n466 163.367
R805 B.n894 B.n466 163.367
R806 B.n894 B.n464 163.367
R807 B.n898 B.n464 163.367
R808 B.n898 B.n458 163.367
R809 B.n906 B.n458 163.367
R810 B.n906 B.n456 163.367
R811 B.n910 B.n456 163.367
R812 B.n910 B.n450 163.367
R813 B.n918 B.n450 163.367
R814 B.n918 B.n448 163.367
R815 B.n922 B.n448 163.367
R816 B.n922 B.n442 163.367
R817 B.n930 B.n442 163.367
R818 B.n930 B.n440 163.367
R819 B.n934 B.n440 163.367
R820 B.n934 B.n434 163.367
R821 B.n942 B.n434 163.367
R822 B.n942 B.n432 163.367
R823 B.n946 B.n432 163.367
R824 B.n946 B.n426 163.367
R825 B.n954 B.n426 163.367
R826 B.n954 B.n424 163.367
R827 B.n958 B.n424 163.367
R828 B.n958 B.n418 163.367
R829 B.n967 B.n418 163.367
R830 B.n967 B.n416 163.367
R831 B.n971 B.n416 163.367
R832 B.n971 B.n2 163.367
R833 B.n1136 B.n2 163.367
R834 B.n1136 B.n3 163.367
R835 B.n1132 B.n3 163.367
R836 B.n1132 B.n9 163.367
R837 B.n1128 B.n9 163.367
R838 B.n1128 B.n11 163.367
R839 B.n1124 B.n11 163.367
R840 B.n1124 B.n16 163.367
R841 B.n1120 B.n16 163.367
R842 B.n1120 B.n18 163.367
R843 B.n1116 B.n18 163.367
R844 B.n1116 B.n23 163.367
R845 B.n1112 B.n23 163.367
R846 B.n1112 B.n25 163.367
R847 B.n1108 B.n25 163.367
R848 B.n1108 B.n30 163.367
R849 B.n1104 B.n30 163.367
R850 B.n1104 B.n32 163.367
R851 B.n1100 B.n32 163.367
R852 B.n1100 B.n37 163.367
R853 B.n1096 B.n37 163.367
R854 B.n1096 B.n39 163.367
R855 B.n1092 B.n39 163.367
R856 B.n1092 B.n44 163.367
R857 B.n1088 B.n44 163.367
R858 B.n1088 B.n46 163.367
R859 B.n1084 B.n46 163.367
R860 B.n1084 B.n51 163.367
R861 B.n1080 B.n51 163.367
R862 B.n1080 B.n53 163.367
R863 B.n1076 B.n53 163.367
R864 B.n1076 B.n57 163.367
R865 B.n1072 B.n57 163.367
R866 B.n1072 B.n59 163.367
R867 B.n1068 B.n59 163.367
R868 B.n1068 B.n65 163.367
R869 B.n1064 B.n65 163.367
R870 B.n1064 B.n67 163.367
R871 B.n1060 B.n67 163.367
R872 B.n1060 B.n72 163.367
R873 B.n1056 B.n72 163.367
R874 B.n1056 B.n74 163.367
R875 B.n1052 B.n74 163.367
R876 B.n1052 B.n79 163.367
R877 B.n1048 B.n79 163.367
R878 B.n1048 B.n81 163.367
R879 B.n1044 B.n81 163.367
R880 B.n1044 B.n86 163.367
R881 B.n830 B.n505 163.367
R882 B.n830 B.n570 163.367
R883 B.n826 B.n825 163.367
R884 B.n822 B.n821 163.367
R885 B.n818 B.n817 163.367
R886 B.n814 B.n813 163.367
R887 B.n810 B.n809 163.367
R888 B.n806 B.n805 163.367
R889 B.n802 B.n801 163.367
R890 B.n798 B.n797 163.367
R891 B.n794 B.n793 163.367
R892 B.n790 B.n789 163.367
R893 B.n786 B.n785 163.367
R894 B.n782 B.n781 163.367
R895 B.n778 B.n777 163.367
R896 B.n774 B.n773 163.367
R897 B.n770 B.n769 163.367
R898 B.n766 B.n765 163.367
R899 B.n762 B.n761 163.367
R900 B.n758 B.n757 163.367
R901 B.n754 B.n753 163.367
R902 B.n750 B.n749 163.367
R903 B.n746 B.n745 163.367
R904 B.n742 B.n741 163.367
R905 B.n738 B.n737 163.367
R906 B.n734 B.n733 163.367
R907 B.n730 B.n729 163.367
R908 B.n726 B.n725 163.367
R909 B.n722 B.n721 163.367
R910 B.n718 B.n717 163.367
R911 B.n713 B.n712 163.367
R912 B.n709 B.n708 163.367
R913 B.n705 B.n704 163.367
R914 B.n701 B.n700 163.367
R915 B.n697 B.n696 163.367
R916 B.n692 B.n691 163.367
R917 B.n688 B.n687 163.367
R918 B.n684 B.n683 163.367
R919 B.n680 B.n679 163.367
R920 B.n676 B.n675 163.367
R921 B.n672 B.n671 163.367
R922 B.n668 B.n667 163.367
R923 B.n664 B.n663 163.367
R924 B.n660 B.n659 163.367
R925 B.n656 B.n655 163.367
R926 B.n652 B.n651 163.367
R927 B.n648 B.n647 163.367
R928 B.n644 B.n643 163.367
R929 B.n640 B.n639 163.367
R930 B.n636 B.n635 163.367
R931 B.n632 B.n631 163.367
R932 B.n628 B.n627 163.367
R933 B.n624 B.n623 163.367
R934 B.n620 B.n619 163.367
R935 B.n616 B.n615 163.367
R936 B.n612 B.n611 163.367
R937 B.n608 B.n607 163.367
R938 B.n604 B.n603 163.367
R939 B.n600 B.n599 163.367
R940 B.n596 B.n595 163.367
R941 B.n592 B.n591 163.367
R942 B.n588 B.n587 163.367
R943 B.n584 B.n583 163.367
R944 B.n580 B.n579 163.367
R945 B.n576 B.n569 163.367
R946 B.n839 B.n501 163.367
R947 B.n839 B.n499 163.367
R948 B.n843 B.n499 163.367
R949 B.n843 B.n492 163.367
R950 B.n851 B.n492 163.367
R951 B.n851 B.n490 163.367
R952 B.n855 B.n490 163.367
R953 B.n855 B.n485 163.367
R954 B.n863 B.n485 163.367
R955 B.n863 B.n483 163.367
R956 B.n867 B.n483 163.367
R957 B.n867 B.n477 163.367
R958 B.n875 B.n477 163.367
R959 B.n875 B.n475 163.367
R960 B.n879 B.n475 163.367
R961 B.n879 B.n470 163.367
R962 B.n888 B.n470 163.367
R963 B.n888 B.n468 163.367
R964 B.n892 B.n468 163.367
R965 B.n892 B.n461 163.367
R966 B.n900 B.n461 163.367
R967 B.n900 B.n459 163.367
R968 B.n904 B.n459 163.367
R969 B.n904 B.n454 163.367
R970 B.n912 B.n454 163.367
R971 B.n912 B.n452 163.367
R972 B.n916 B.n452 163.367
R973 B.n916 B.n446 163.367
R974 B.n924 B.n446 163.367
R975 B.n924 B.n444 163.367
R976 B.n928 B.n444 163.367
R977 B.n928 B.n438 163.367
R978 B.n936 B.n438 163.367
R979 B.n936 B.n436 163.367
R980 B.n940 B.n436 163.367
R981 B.n940 B.n430 163.367
R982 B.n948 B.n430 163.367
R983 B.n948 B.n428 163.367
R984 B.n952 B.n428 163.367
R985 B.n952 B.n421 163.367
R986 B.n960 B.n421 163.367
R987 B.n960 B.n419 163.367
R988 B.n965 B.n419 163.367
R989 B.n965 B.n414 163.367
R990 B.n973 B.n414 163.367
R991 B.n974 B.n973 163.367
R992 B.n974 B.n5 163.367
R993 B.n6 B.n5 163.367
R994 B.n7 B.n6 163.367
R995 B.n979 B.n7 163.367
R996 B.n979 B.n12 163.367
R997 B.n13 B.n12 163.367
R998 B.n14 B.n13 163.367
R999 B.n984 B.n14 163.367
R1000 B.n984 B.n19 163.367
R1001 B.n20 B.n19 163.367
R1002 B.n21 B.n20 163.367
R1003 B.n989 B.n21 163.367
R1004 B.n989 B.n26 163.367
R1005 B.n27 B.n26 163.367
R1006 B.n28 B.n27 163.367
R1007 B.n994 B.n28 163.367
R1008 B.n994 B.n33 163.367
R1009 B.n34 B.n33 163.367
R1010 B.n35 B.n34 163.367
R1011 B.n999 B.n35 163.367
R1012 B.n999 B.n40 163.367
R1013 B.n41 B.n40 163.367
R1014 B.n42 B.n41 163.367
R1015 B.n1004 B.n42 163.367
R1016 B.n1004 B.n47 163.367
R1017 B.n48 B.n47 163.367
R1018 B.n49 B.n48 163.367
R1019 B.n1009 B.n49 163.367
R1020 B.n1009 B.n54 163.367
R1021 B.n55 B.n54 163.367
R1022 B.n56 B.n55 163.367
R1023 B.n1014 B.n56 163.367
R1024 B.n1014 B.n61 163.367
R1025 B.n62 B.n61 163.367
R1026 B.n63 B.n62 163.367
R1027 B.n1019 B.n63 163.367
R1028 B.n1019 B.n68 163.367
R1029 B.n69 B.n68 163.367
R1030 B.n70 B.n69 163.367
R1031 B.n1024 B.n70 163.367
R1032 B.n1024 B.n75 163.367
R1033 B.n76 B.n75 163.367
R1034 B.n77 B.n76 163.367
R1035 B.n1029 B.n77 163.367
R1036 B.n1029 B.n82 163.367
R1037 B.n83 B.n82 163.367
R1038 B.n84 B.n83 163.367
R1039 B.n153 B.n84 163.367
R1040 B.n160 B.n88 163.367
R1041 B.n164 B.n163 163.367
R1042 B.n168 B.n167 163.367
R1043 B.n172 B.n171 163.367
R1044 B.n176 B.n175 163.367
R1045 B.n180 B.n179 163.367
R1046 B.n184 B.n183 163.367
R1047 B.n188 B.n187 163.367
R1048 B.n192 B.n191 163.367
R1049 B.n196 B.n195 163.367
R1050 B.n200 B.n199 163.367
R1051 B.n204 B.n203 163.367
R1052 B.n208 B.n207 163.367
R1053 B.n212 B.n211 163.367
R1054 B.n216 B.n215 163.367
R1055 B.n220 B.n219 163.367
R1056 B.n224 B.n223 163.367
R1057 B.n228 B.n227 163.367
R1058 B.n232 B.n231 163.367
R1059 B.n236 B.n235 163.367
R1060 B.n240 B.n239 163.367
R1061 B.n244 B.n243 163.367
R1062 B.n248 B.n247 163.367
R1063 B.n252 B.n251 163.367
R1064 B.n256 B.n255 163.367
R1065 B.n260 B.n259 163.367
R1066 B.n264 B.n263 163.367
R1067 B.n268 B.n267 163.367
R1068 B.n272 B.n271 163.367
R1069 B.n276 B.n275 163.367
R1070 B.n280 B.n279 163.367
R1071 B.n284 B.n283 163.367
R1072 B.n288 B.n287 163.367
R1073 B.n292 B.n291 163.367
R1074 B.n296 B.n295 163.367
R1075 B.n300 B.n299 163.367
R1076 B.n304 B.n303 163.367
R1077 B.n308 B.n307 163.367
R1078 B.n312 B.n311 163.367
R1079 B.n316 B.n315 163.367
R1080 B.n320 B.n319 163.367
R1081 B.n324 B.n323 163.367
R1082 B.n328 B.n327 163.367
R1083 B.n332 B.n331 163.367
R1084 B.n336 B.n335 163.367
R1085 B.n340 B.n339 163.367
R1086 B.n344 B.n343 163.367
R1087 B.n348 B.n347 163.367
R1088 B.n352 B.n351 163.367
R1089 B.n356 B.n355 163.367
R1090 B.n360 B.n359 163.367
R1091 B.n364 B.n363 163.367
R1092 B.n368 B.n367 163.367
R1093 B.n372 B.n371 163.367
R1094 B.n376 B.n375 163.367
R1095 B.n380 B.n379 163.367
R1096 B.n384 B.n383 163.367
R1097 B.n388 B.n387 163.367
R1098 B.n392 B.n391 163.367
R1099 B.n396 B.n395 163.367
R1100 B.n400 B.n399 163.367
R1101 B.n404 B.n403 163.367
R1102 B.n408 B.n407 163.367
R1103 B.n410 B.n152 163.367
R1104 B.n833 B.n832 71.676
R1105 B.n570 B.n506 71.676