* NGSPICE file created from tg_sample_0009.ext - technology: sky130A

.subckt tg_sample_0009 VIN VGN VGP VSS VCC VOUT
X0 VOUT.t27 VOUT.t26 VOUT.t27 VSS.t2 sky130_fd_pr__nfet_01v8 ad=0.3036 pd=2.17 as=0 ps=0 w=1.84 l=0.26
X1 VOUT.t25 VOUT.t24 VOUT.t25 VSS.t2 sky130_fd_pr__nfet_01v8 ad=0.3036 pd=2.17 as=0 ps=0 w=1.84 l=0.26
X2 VOUT.t23 VOUT.t21 VOUT.t22 VSS.t1 sky130_fd_pr__nfet_01v8 ad=0.7176 pd=4.46 as=0 ps=0 w=1.84 l=0.26
X3 VSS.t16 VSS.t14 VSS.t15 VSS.t11 sky130_fd_pr__nfet_01v8 ad=0.7176 pd=4.46 as=0 ps=0 w=1.84 l=0.26
X4 VOUT.t20 VOUT.t19 VOUT.t20 VCC.t2 sky130_fd_pr__pfet_01v8 ad=2.2176 pd=13.77 as=0 ps=0 w=13.44 l=0.21
X5 VOUT.t18 VOUT.t17 VOUT.t18 VCC.t1 sky130_fd_pr__pfet_01v8 ad=2.2176 pd=13.77 as=0 ps=0 w=13.44 l=0.21
X6 VCC.t16 VCC.t14 VCC.t15 VCC.t8 sky130_fd_pr__pfet_01v8 ad=5.2416 pd=27.66 as=0 ps=0 w=13.44 l=0.21
X7 VSS.t13 VSS.t10 VSS.t12 VSS.t11 sky130_fd_pr__nfet_01v8 ad=0.7176 pd=4.46 as=0 ps=0 w=1.84 l=0.26
X8 VOUT.t16 VOUT.t15 VOUT.t16 VSS.t0 sky130_fd_pr__nfet_01v8 ad=0.3036 pd=2.17 as=0 ps=0 w=1.84 l=0.26
X9 VSS.t9 VSS.t7 VSS.t8 VSS.t4 sky130_fd_pr__nfet_01v8 ad=0.7176 pd=4.46 as=0 ps=0 w=1.84 l=0.26
X10 VOUT.t14 VOUT.t13 VOUT.t14 VCC.t2 sky130_fd_pr__pfet_01v8 ad=2.2176 pd=13.77 as=0 ps=0 w=13.44 l=0.21
X11 VOUT.t12 VOUT.t10 VOUT.t11 VCC.t0 sky130_fd_pr__pfet_01v8 ad=5.2416 pd=27.66 as=0 ps=0 w=13.44 l=0.21
X12 VCC.t13 VCC.t11 VCC.t12 VCC.t4 sky130_fd_pr__pfet_01v8 ad=5.2416 pd=27.66 as=0 ps=0 w=13.44 l=0.21
X13 VOUT.t9 VOUT.t7 VOUT.t8 VSS.t1 sky130_fd_pr__nfet_01v8 ad=0.7176 pd=4.46 as=0 ps=0 w=1.84 l=0.26
X14 VOUT.t6 VOUT.t5 VOUT.t6 VSS.t0 sky130_fd_pr__nfet_01v8 ad=0.3036 pd=2.17 as=0 ps=0 w=1.84 l=0.26
X15 VSS.t6 VSS.t3 VSS.t5 VSS.t4 sky130_fd_pr__nfet_01v8 ad=0.7176 pd=4.46 as=0 ps=0 w=1.84 l=0.26
X16 VOUT.t4 VOUT.t3 VOUT.t4 VCC.t1 sky130_fd_pr__pfet_01v8 ad=2.2176 pd=13.77 as=0 ps=0 w=13.44 l=0.21
X17 VCC.t10 VCC.t7 VCC.t9 VCC.t8 sky130_fd_pr__pfet_01v8 ad=5.2416 pd=27.66 as=0 ps=0 w=13.44 l=0.21
X18 VOUT.t2 VOUT.t0 VOUT.t1 VCC.t0 sky130_fd_pr__pfet_01v8 ad=5.2416 pd=27.66 as=0 ps=0 w=13.44 l=0.21
X19 VCC.t6 VCC.t3 VCC.t5 VCC.t4 sky130_fd_pr__pfet_01v8 ad=5.2416 pd=27.66 as=0 ps=0 w=13.44 l=0.21
R0 VOUT.n177 VOUT.t10 1733.95
R1 VOUT.n179 VOUT.t19 1733.95
R2 VOUT.n168 VOUT.t0 1733.95
R3 VOUT.n170 VOUT.t13 1733.95
R4 VOUT.n178 VOUT.t3 1691.59
R5 VOUT.n169 VOUT.t17 1691.59
R6 VOUT.n120 VOUT.n118 756.745
R7 VOUT.n333 VOUT.n265 756.745
R8 VOUT.n251 VOUT.n183 756.745
R9 VOUT.n90 VOUT.n22 756.745
R10 VOUT.n167 VOUT.n166 585
R11 VOUT.n98 VOUT.n97 585
R12 VOUT.n161 VOUT.n160 585
R13 VOUT.n159 VOUT.n158 585
R14 VOUT.n102 VOUT.n101 585
R15 VOUT.n153 VOUT.n152 585
R16 VOUT.n151 VOUT.n150 585
R17 VOUT.n106 VOUT.n105 585
R18 VOUT.n145 VOUT.n144 585
R19 VOUT.n143 VOUT.n108 585
R20 VOUT.n142 VOUT.n141 585
R21 VOUT.n111 VOUT.n109 585
R22 VOUT.n136 VOUT.n135 585
R23 VOUT.n134 VOUT.n133 585
R24 VOUT.n115 VOUT.n114 585
R25 VOUT.n128 VOUT.n127 585
R26 VOUT.n126 VOUT.n125 585
R27 VOUT.n119 VOUT.n118 585
R28 VOUT.n290 VOUT.n289 585
R29 VOUT.n292 VOUT.n291 585
R30 VOUT.n285 VOUT.n284 585
R31 VOUT.n298 VOUT.n297 585
R32 VOUT.n300 VOUT.n299 585
R33 VOUT.n281 VOUT.n280 585
R34 VOUT.n307 VOUT.n306 585
R35 VOUT.n308 VOUT.n279 585
R36 VOUT.n310 VOUT.n309 585
R37 VOUT.n277 VOUT.n276 585
R38 VOUT.n316 VOUT.n315 585
R39 VOUT.n318 VOUT.n317 585
R40 VOUT.n273 VOUT.n272 585
R41 VOUT.n324 VOUT.n323 585
R42 VOUT.n326 VOUT.n325 585
R43 VOUT.n269 VOUT.n268 585
R44 VOUT.n332 VOUT.n331 585
R45 VOUT.n334 VOUT.n333 585
R46 VOUT.n208 VOUT.n207 585
R47 VOUT.n210 VOUT.n209 585
R48 VOUT.n203 VOUT.n202 585
R49 VOUT.n216 VOUT.n215 585
R50 VOUT.n218 VOUT.n217 585
R51 VOUT.n199 VOUT.n198 585
R52 VOUT.n225 VOUT.n224 585
R53 VOUT.n226 VOUT.n197 585
R54 VOUT.n228 VOUT.n227 585
R55 VOUT.n195 VOUT.n194 585
R56 VOUT.n234 VOUT.n233 585
R57 VOUT.n236 VOUT.n235 585
R58 VOUT.n191 VOUT.n190 585
R59 VOUT.n242 VOUT.n241 585
R60 VOUT.n244 VOUT.n243 585
R61 VOUT.n187 VOUT.n186 585
R62 VOUT.n250 VOUT.n249 585
R63 VOUT.n252 VOUT.n251 585
R64 VOUT.n47 VOUT.n46 585
R65 VOUT.n49 VOUT.n48 585
R66 VOUT.n42 VOUT.n41 585
R67 VOUT.n55 VOUT.n54 585
R68 VOUT.n57 VOUT.n56 585
R69 VOUT.n38 VOUT.n37 585
R70 VOUT.n64 VOUT.n63 585
R71 VOUT.n65 VOUT.n36 585
R72 VOUT.n67 VOUT.n66 585
R73 VOUT.n34 VOUT.n33 585
R74 VOUT.n73 VOUT.n72 585
R75 VOUT.n75 VOUT.n74 585
R76 VOUT.n30 VOUT.n29 585
R77 VOUT.n81 VOUT.n80 585
R78 VOUT.n83 VOUT.n82 585
R79 VOUT.n26 VOUT.n25 585
R80 VOUT.n89 VOUT.n88 585
R81 VOUT.n91 VOUT.n90 585
R82 VOUT.n174 VOUT.t24 340.714
R83 VOUT.n172 VOUT.t21 340.714
R84 VOUT.n2 VOUT.t26 340.714
R85 VOUT.n0 VOUT.t7 340.714
R86 VOUT.t14 VOUT.n96 329.036
R87 VOUT.n288 VOUT.t12 329.036
R88 VOUT.n206 VOUT.t2 329.036
R89 VOUT.n45 VOUT.t20 329.036
R90 VOUT.n173 VOUT.t5 291.055
R91 VOUT.n1 VOUT.t15 291.055
R92 VOUT.n351 VOUT.n349 289.615
R93 VOUT.n343 VOUT.n340 289.615
R94 VOUT.n15 VOUT.n13 289.615
R95 VOUT.n7 VOUT.n5 289.615
R96 VOUT.n352 VOUT.n351 185
R97 VOUT.n345 VOUT.n340 185
R98 VOUT.n16 VOUT.n15 185
R99 VOUT.n8 VOUT.n7 185
R100 VOUT.n167 VOUT.n97 171.744
R101 VOUT.n160 VOUT.n97 171.744
R102 VOUT.n160 VOUT.n159 171.744
R103 VOUT.n159 VOUT.n101 171.744
R104 VOUT.n152 VOUT.n101 171.744
R105 VOUT.n152 VOUT.n151 171.744
R106 VOUT.n151 VOUT.n105 171.744
R107 VOUT.n144 VOUT.n105 171.744
R108 VOUT.n144 VOUT.n143 171.744
R109 VOUT.n143 VOUT.n142 171.744
R110 VOUT.n142 VOUT.n109 171.744
R111 VOUT.n135 VOUT.n109 171.744
R112 VOUT.n135 VOUT.n134 171.744
R113 VOUT.n134 VOUT.n114 171.744
R114 VOUT.n127 VOUT.n114 171.744
R115 VOUT.n127 VOUT.n126 171.744
R116 VOUT.n126 VOUT.n118 171.744
R117 VOUT.n291 VOUT.n290 171.744
R118 VOUT.n291 VOUT.n284 171.744
R119 VOUT.n298 VOUT.n284 171.744
R120 VOUT.n299 VOUT.n298 171.744
R121 VOUT.n299 VOUT.n280 171.744
R122 VOUT.n307 VOUT.n280 171.744
R123 VOUT.n308 VOUT.n307 171.744
R124 VOUT.n309 VOUT.n308 171.744
R125 VOUT.n309 VOUT.n276 171.744
R126 VOUT.n316 VOUT.n276 171.744
R127 VOUT.n317 VOUT.n316 171.744
R128 VOUT.n317 VOUT.n272 171.744
R129 VOUT.n324 VOUT.n272 171.744
R130 VOUT.n325 VOUT.n324 171.744
R131 VOUT.n325 VOUT.n268 171.744
R132 VOUT.n332 VOUT.n268 171.744
R133 VOUT.n333 VOUT.n332 171.744
R134 VOUT.n209 VOUT.n208 171.744
R135 VOUT.n209 VOUT.n202 171.744
R136 VOUT.n216 VOUT.n202 171.744
R137 VOUT.n217 VOUT.n216 171.744
R138 VOUT.n217 VOUT.n198 171.744
R139 VOUT.n225 VOUT.n198 171.744
R140 VOUT.n226 VOUT.n225 171.744
R141 VOUT.n227 VOUT.n226 171.744
R142 VOUT.n227 VOUT.n194 171.744
R143 VOUT.n234 VOUT.n194 171.744
R144 VOUT.n235 VOUT.n234 171.744
R145 VOUT.n235 VOUT.n190 171.744
R146 VOUT.n242 VOUT.n190 171.744
R147 VOUT.n243 VOUT.n242 171.744
R148 VOUT.n243 VOUT.n186 171.744
R149 VOUT.n250 VOUT.n186 171.744
R150 VOUT.n251 VOUT.n250 171.744
R151 VOUT.n48 VOUT.n47 171.744
R152 VOUT.n48 VOUT.n41 171.744
R153 VOUT.n55 VOUT.n41 171.744
R154 VOUT.n56 VOUT.n55 171.744
R155 VOUT.n56 VOUT.n37 171.744
R156 VOUT.n64 VOUT.n37 171.744
R157 VOUT.n65 VOUT.n64 171.744
R158 VOUT.n66 VOUT.n65 171.744
R159 VOUT.n66 VOUT.n33 171.744
R160 VOUT.n73 VOUT.n33 171.744
R161 VOUT.n74 VOUT.n73 171.744
R162 VOUT.n74 VOUT.n29 171.744
R163 VOUT.n81 VOUT.n29 171.744
R164 VOUT.n82 VOUT.n81 171.744
R165 VOUT.n82 VOUT.n25 171.744
R166 VOUT.n89 VOUT.n25 171.744
R167 VOUT.n90 VOUT.n89 171.744
R168 VOUT.t23 VOUT.n350 164.876
R169 VOUT.t25 VOUT.n346 164.876
R170 VOUT.n14 VOUT.t27 164.876
R171 VOUT.t9 VOUT.n6 164.876
R172 VOUT.n175 VOUT.n172 161.489
R173 VOUT.n180 VOUT.n177 161.489
R174 VOUT.n171 VOUT.n168 161.489
R175 VOUT.n3 VOUT.n0 161.489
R176 VOUT.n175 VOUT.n174 161.3
R177 VOUT.n180 VOUT.n179 161.3
R178 VOUT.n171 VOUT.n170 161.3
R179 VOUT.n3 VOUT.n2 161.3
R180 VOUT.n347 VOUT.n20 102.587
R181 VOUT.n361 VOUT.n360 102.587
R182 VOUT.n356 VOUT.n348 86.4166
R183 VOUT.n363 VOUT.n362 85.9079
R184 VOUT.t14 VOUT.n167 85.8723
R185 VOUT.n290 VOUT.t12 85.8723
R186 VOUT.n208 VOUT.t2 85.8723
R187 VOUT.n47 VOUT.t20 85.8723
R188 VOUT.n260 VOUT.n259 69.9534
R189 VOUT.n263 VOUT.n262 69.9534
R190 VOUT.n338 VOUT.n264 53.7401
R191 VOUT.n258 VOUT.n257 53.2746
R192 VOUT.n342 VOUT.n20 52.4758
R193 VOUT.n360 VOUT.n19 52.4758
R194 VOUT.n351 VOUT.t23 52.3082
R195 VOUT.t25 VOUT.n340 52.3082
R196 VOUT.n15 VOUT.t27 52.3082
R197 VOUT.n7 VOUT.t9 52.3082
R198 VOUT.n260 VOUT.n95 47.0024
R199 VOUT.n262 VOUT.n94 47.0024
R200 VOUT.n174 VOUT.n173 36.5157
R201 VOUT.n173 VOUT.n172 36.5157
R202 VOUT.n179 VOUT.n178 36.5157
R203 VOUT.n178 VOUT.n177 36.5157
R204 VOUT.n170 VOUT.n169 36.5157
R205 VOUT.n169 VOUT.n168 36.5157
R206 VOUT.n2 VOUT.n1 36.5157
R207 VOUT.n1 VOUT.n0 36.5157
R208 VOUT.n356 VOUT.n355 35.2884
R209 VOUT.n12 VOUT.n11 35.2884
R210 VOUT.n338 VOUT.n337 29.8581
R211 VOUT.n256 VOUT.n255 29.8581
R212 VOUT.n262 VOUT.n261 17.2979
R213 VOUT.n352 VOUT.n350 14.7318
R214 VOUT.n346 VOUT.n345 14.7318
R215 VOUT.n16 VOUT.n14 14.7318
R216 VOUT.n8 VOUT.n6 14.7318
R217 VOUT.n145 VOUT.n108 13.1884
R218 VOUT.n310 VOUT.n277 13.1884
R219 VOUT.n228 VOUT.n195 13.1884
R220 VOUT.n67 VOUT.n34 13.1884
R221 VOUT.n146 VOUT.n106 12.8005
R222 VOUT.n141 VOUT.n110 12.8005
R223 VOUT.n311 VOUT.n279 12.8005
R224 VOUT.n315 VOUT.n314 12.8005
R225 VOUT.n353 VOUT.n349 12.8005
R226 VOUT.n344 VOUT.n343 12.8005
R227 VOUT.n17 VOUT.n13 12.8005
R228 VOUT.n9 VOUT.n5 12.8005
R229 VOUT.n229 VOUT.n197 12.8005
R230 VOUT.n233 VOUT.n232 12.8005
R231 VOUT.n68 VOUT.n36 12.8005
R232 VOUT.n72 VOUT.n71 12.8005
R233 VOUT.n359 VOUT.n20 12.3626
R234 VOUT.n150 VOUT.n149 12.0247
R235 VOUT.n140 VOUT.n111 12.0247
R236 VOUT.n306 VOUT.n305 12.0247
R237 VOUT.n318 VOUT.n275 12.0247
R238 VOUT.n224 VOUT.n223 12.0247
R239 VOUT.n236 VOUT.n193 12.0247
R240 VOUT.n63 VOUT.n62 12.0247
R241 VOUT.n75 VOUT.n32 12.0247
R242 VOUT.n153 VOUT.n104 11.249
R243 VOUT.n137 VOUT.n136 11.249
R244 VOUT.n304 VOUT.n281 11.249
R245 VOUT.n319 VOUT.n273 11.249
R246 VOUT.n222 VOUT.n199 11.249
R247 VOUT.n237 VOUT.n191 11.249
R248 VOUT.n61 VOUT.n38 11.249
R249 VOUT.n76 VOUT.n30 11.249
R250 VOUT.n348 VOUT.t25 10.7614
R251 VOUT.n348 VOUT.t6 10.7614
R252 VOUT.t6 VOUT.n347 10.7614
R253 VOUT.n347 VOUT.t22 10.7614
R254 VOUT.t16 VOUT.n361 10.7614
R255 VOUT.n361 VOUT.t8 10.7614
R256 VOUT.n362 VOUT.t27 10.7614
R257 VOUT.n362 VOUT.t16 10.7614
R258 VOUT.n166 VOUT.n96 10.7239
R259 VOUT.n289 VOUT.n288 10.7239
R260 VOUT.n207 VOUT.n206 10.7239
R261 VOUT.n46 VOUT.n45 10.7239
R262 VOUT.n154 VOUT.n102 10.4732
R263 VOUT.n133 VOUT.n113 10.4732
R264 VOUT.n301 VOUT.n300 10.4732
R265 VOUT.n323 VOUT.n322 10.4732
R266 VOUT.n219 VOUT.n218 10.4732
R267 VOUT.n241 VOUT.n240 10.4732
R268 VOUT.n58 VOUT.n57 10.4732
R269 VOUT.n80 VOUT.n79 10.4732
R270 VOUT.n182 VGP 10.2901
R271 VOUT.n158 VOUT.n157 9.69747
R272 VOUT.n132 VOUT.n115 9.69747
R273 VOUT.n297 VOUT.n283 9.69747
R274 VOUT.n326 VOUT.n271 9.69747
R275 VOUT.n215 VOUT.n201 9.69747
R276 VOUT.n244 VOUT.n189 9.69747
R277 VOUT.n54 VOUT.n40 9.69747
R278 VOUT.n83 VOUT.n28 9.69747
R279 VOUT.n122 VOUT.n95 9.45567
R280 VOUT.n337 VOUT.n336 9.45567
R281 VOUT.n355 VOUT.n354 9.45567
R282 VOUT.n342 VOUT.n341 9.45567
R283 VOUT.n19 VOUT.n18 9.45567
R284 VOUT.n11 VOUT.n10 9.45567
R285 VOUT.n255 VOUT.n254 9.45567
R286 VOUT.n94 VOUT.n93 9.45567
R287 VOUT.n122 VOUT.n121 9.3005
R288 VOUT.n117 VOUT.n116 9.3005
R289 VOUT.n130 VOUT.n129 9.3005
R290 VOUT.n132 VOUT.n131 9.3005
R291 VOUT.n113 VOUT.n112 9.3005
R292 VOUT.n138 VOUT.n137 9.3005
R293 VOUT.n140 VOUT.n139 9.3005
R294 VOUT.n110 VOUT.n107 9.3005
R295 VOUT.n165 VOUT.n164 9.3005
R296 VOUT.n163 VOUT.n162 9.3005
R297 VOUT.n100 VOUT.n99 9.3005
R298 VOUT.n157 VOUT.n156 9.3005
R299 VOUT.n155 VOUT.n154 9.3005
R300 VOUT.n104 VOUT.n103 9.3005
R301 VOUT.n149 VOUT.n148 9.3005
R302 VOUT.n147 VOUT.n146 9.3005
R303 VOUT.n124 VOUT.n123 9.3005
R304 VOUT.n336 VOUT.n335 9.3005
R305 VOUT.n330 VOUT.n329 9.3005
R306 VOUT.n328 VOUT.n327 9.3005
R307 VOUT.n271 VOUT.n270 9.3005
R308 VOUT.n322 VOUT.n321 9.3005
R309 VOUT.n320 VOUT.n319 9.3005
R310 VOUT.n275 VOUT.n274 9.3005
R311 VOUT.n314 VOUT.n313 9.3005
R312 VOUT.n287 VOUT.n286 9.3005
R313 VOUT.n294 VOUT.n293 9.3005
R314 VOUT.n296 VOUT.n295 9.3005
R315 VOUT.n283 VOUT.n282 9.3005
R316 VOUT.n302 VOUT.n301 9.3005
R317 VOUT.n304 VOUT.n303 9.3005
R318 VOUT.n305 VOUT.n278 9.3005
R319 VOUT.n312 VOUT.n311 9.3005
R320 VOUT.n267 VOUT.n266 9.3005
R321 VOUT.n354 VOUT.n353 9.3005
R322 VOUT.n344 VOUT.n341 9.3005
R323 VOUT.n18 VOUT.n17 9.3005
R324 VOUT.n10 VOUT.n9 9.3005
R325 VOUT.n254 VOUT.n253 9.3005
R326 VOUT.n248 VOUT.n247 9.3005
R327 VOUT.n246 VOUT.n245 9.3005
R328 VOUT.n189 VOUT.n188 9.3005
R329 VOUT.n240 VOUT.n239 9.3005
R330 VOUT.n238 VOUT.n237 9.3005
R331 VOUT.n193 VOUT.n192 9.3005
R332 VOUT.n232 VOUT.n231 9.3005
R333 VOUT.n205 VOUT.n204 9.3005
R334 VOUT.n212 VOUT.n211 9.3005
R335 VOUT.n214 VOUT.n213 9.3005
R336 VOUT.n201 VOUT.n200 9.3005
R337 VOUT.n220 VOUT.n219 9.3005
R338 VOUT.n222 VOUT.n221 9.3005
R339 VOUT.n223 VOUT.n196 9.3005
R340 VOUT.n230 VOUT.n229 9.3005
R341 VOUT.n185 VOUT.n184 9.3005
R342 VOUT.n93 VOUT.n92 9.3005
R343 VOUT.n87 VOUT.n86 9.3005
R344 VOUT.n85 VOUT.n84 9.3005
R345 VOUT.n28 VOUT.n27 9.3005
R346 VOUT.n79 VOUT.n78 9.3005
R347 VOUT.n77 VOUT.n76 9.3005
R348 VOUT.n32 VOUT.n31 9.3005
R349 VOUT.n71 VOUT.n70 9.3005
R350 VOUT.n44 VOUT.n43 9.3005
R351 VOUT.n51 VOUT.n50 9.3005
R352 VOUT.n53 VOUT.n52 9.3005
R353 VOUT.n40 VOUT.n39 9.3005
R354 VOUT.n59 VOUT.n58 9.3005
R355 VOUT.n61 VOUT.n60 9.3005
R356 VOUT.n62 VOUT.n35 9.3005
R357 VOUT.n69 VOUT.n68 9.3005
R358 VOUT.n24 VOUT.n23 9.3005
R359 VOUT.n181 VOUT.n176 9.18554
R360 VOUT.n161 VOUT.n100 8.92171
R361 VOUT.n129 VOUT.n128 8.92171
R362 VOUT.n296 VOUT.n285 8.92171
R363 VOUT.n327 VOUT.n269 8.92171
R364 VOUT.n214 VOUT.n203 8.92171
R365 VOUT.n245 VOUT.n187 8.92171
R366 VOUT.n53 VOUT.n42 8.92171
R367 VOUT.n84 VOUT.n26 8.92171
R368 VOUT.n162 VOUT.n98 8.14595
R369 VOUT.n125 VOUT.n117 8.14595
R370 VOUT.n293 VOUT.n292 8.14595
R371 VOUT.n331 VOUT.n330 8.14595
R372 VOUT.n211 VOUT.n210 8.14595
R373 VOUT.n249 VOUT.n248 8.14595
R374 VOUT.n50 VOUT.n49 8.14595
R375 VOUT.n88 VOUT.n87 8.14595
R376 VOUT.n166 VOUT.n165 7.3702
R377 VOUT.n124 VOUT.n119 7.3702
R378 VOUT.n120 VOUT.n95 7.3702
R379 VOUT.n289 VOUT.n287 7.3702
R380 VOUT.n334 VOUT.n267 7.3702
R381 VOUT.n337 VOUT.n265 7.3702
R382 VOUT.n207 VOUT.n205 7.3702
R383 VOUT.n252 VOUT.n185 7.3702
R384 VOUT.n255 VOUT.n183 7.3702
R385 VOUT.n46 VOUT.n44 7.3702
R386 VOUT.n91 VOUT.n24 7.3702
R387 VOUT.n94 VOUT.n22 7.3702
R388 VOUT.n121 VOUT.n119 6.59444
R389 VOUT.n121 VOUT.n120 6.59444
R390 VOUT.n335 VOUT.n334 6.59444
R391 VOUT.n335 VOUT.n265 6.59444
R392 VOUT.n253 VOUT.n252 6.59444
R393 VOUT.n253 VOUT.n183 6.59444
R394 VOUT.n92 VOUT.n91 6.59444
R395 VOUT.n92 VOUT.n22 6.59444
R396 VOUT.n339 VOUT.n21 6.46171
R397 VOUT.n4 VGN 5.90067
R398 VOUT.n165 VOUT.n98 5.81868
R399 VOUT.n125 VOUT.n124 5.81868
R400 VOUT.n292 VOUT.n287 5.81868
R401 VOUT.n331 VOUT.n267 5.81868
R402 VOUT.n210 VOUT.n205 5.81868
R403 VOUT.n249 VOUT.n185 5.81868
R404 VOUT.n49 VOUT.n44 5.81868
R405 VOUT.n88 VOUT.n24 5.81868
R406 VOUT.n354 VOUT.n350 5.62509
R407 VOUT.n346 VOUT.n341 5.62509
R408 VOUT.n18 VOUT.n14 5.62509
R409 VOUT.n10 VOUT.n6 5.62509
R410 VOUT.n257 VOUT.n182 5.09533
R411 VOUT.n256 VOUT.n21 5.06947
R412 VOUT.n358 VOUT.n12 5.06539
R413 VOUT.n162 VOUT.n161 5.04292
R414 VOUT.n128 VOUT.n117 5.04292
R415 VOUT.n293 VOUT.n285 5.04292
R416 VOUT.n330 VOUT.n269 5.04292
R417 VOUT.n211 VOUT.n203 5.04292
R418 VOUT.n248 VOUT.n187 5.04292
R419 VOUT.n50 VOUT.n42 5.04292
R420 VOUT.n87 VOUT.n26 5.04292
R421 VOUT.n176 VOUT.n175 4.9683
R422 VOUT.n181 VOUT.n180 4.93989
R423 VOUT.n339 VOUT.n338 4.88412
R424 VOUT.n357 VOUT.n356 4.88412
R425 VIN VOUT.n4 4.83671
R426 VOUT.n359 VOUT.n358 4.5005
R427 VOUT.n261 VOUT.n21 4.5005
R428 VOUT.n158 VOUT.n100 4.26717
R429 VOUT.n129 VOUT.n115 4.26717
R430 VOUT.n297 VOUT.n296 4.26717
R431 VOUT.n327 VOUT.n326 4.26717
R432 VOUT.n215 VOUT.n214 4.26717
R433 VOUT.n245 VOUT.n244 4.26717
R434 VOUT.n54 VOUT.n53 4.26717
R435 VOUT.n84 VOUT.n83 4.26717
R436 VOUT.n157 VOUT.n102 3.49141
R437 VOUT.n133 VOUT.n132 3.49141
R438 VOUT.n300 VOUT.n283 3.49141
R439 VOUT.n323 VOUT.n271 3.49141
R440 VOUT.n218 VOUT.n201 3.49141
R441 VOUT.n241 VOUT.n189 3.49141
R442 VOUT.n57 VOUT.n40 3.49141
R443 VOUT.n80 VOUT.n28 3.49141
R444 VOUT.n154 VOUT.n153 2.71565
R445 VOUT.n136 VOUT.n113 2.71565
R446 VOUT.n301 VOUT.n281 2.71565
R447 VOUT.n322 VOUT.n273 2.71565
R448 VOUT.n219 VOUT.n199 2.71565
R449 VOUT.n240 VOUT.n191 2.71565
R450 VOUT.n58 VOUT.n38 2.71565
R451 VOUT.n79 VOUT.n30 2.71565
R452 VOUT.n259 VOUT.t18 2.41903
R453 VOUT.n259 VOUT.t1 2.41903
R454 VOUT.n264 VOUT.t20 2.41903
R455 VOUT.n264 VOUT.t4 2.41903
R456 VOUT.n258 VOUT.t14 2.41903
R457 VOUT.t18 VOUT.n258 2.41903
R458 VOUT.t4 VOUT.n263 2.41903
R459 VOUT.n263 VOUT.t11 2.41903
R460 VOUT.n164 VOUT.n96 2.41282
R461 VOUT.n288 VOUT.n286 2.41282
R462 VOUT.n206 VOUT.n204 2.41282
R463 VOUT.n45 VOUT.n43 2.41282
R464 VOUT.n150 VOUT.n104 1.93989
R465 VOUT.n137 VOUT.n111 1.93989
R466 VOUT.n306 VOUT.n304 1.93989
R467 VOUT.n319 VOUT.n318 1.93989
R468 VOUT.n224 VOUT.n222 1.93989
R469 VOUT.n237 VOUT.n236 1.93989
R470 VOUT.n63 VOUT.n61 1.93989
R471 VOUT.n76 VOUT.n75 1.93989
R472 VOUT.n357 VOUT.n339 1.68608
R473 VOUT.n149 VOUT.n106 1.16414
R474 VOUT.n141 VOUT.n140 1.16414
R475 VOUT.n305 VOUT.n279 1.16414
R476 VOUT.n315 VOUT.n275 1.16414
R477 VOUT.n355 VOUT.n349 1.16414
R478 VOUT.n343 VOUT.n342 1.16414
R479 VOUT.n19 VOUT.n13 1.16414
R480 VOUT.n11 VOUT.n5 1.16414
R481 VOUT.n223 VOUT.n197 1.16414
R482 VOUT.n233 VOUT.n193 1.16414
R483 VOUT.n62 VOUT.n36 1.16414
R484 VOUT.n72 VOUT.n32 1.16414
R485 VOUT.n358 VOUT.n357 1.11094
R486 VOUT.n360 VOUT.n359 0.595328
R487 VOUT.n363 VOUT.n12 0.509121
R488 VOUT.n257 VOUT.n256 0.466017
R489 VOUT.n146 VOUT.n145 0.388379
R490 VOUT.n110 VOUT.n108 0.388379
R491 VOUT.n311 VOUT.n310 0.388379
R492 VOUT.n314 VOUT.n277 0.388379
R493 VOUT.n353 VOUT.n352 0.388379
R494 VOUT.n345 VOUT.n344 0.388379
R495 VOUT.n17 VOUT.n16 0.388379
R496 VOUT.n9 VOUT.n8 0.388379
R497 VOUT.n229 VOUT.n228 0.388379
R498 VOUT.n232 VOUT.n195 0.388379
R499 VOUT.n68 VOUT.n67 0.388379
R500 VOUT.n71 VOUT.n34 0.388379
R501 VOUT VOUT.n260 0.353948
R502 VOUT.n176 VOUT.n4 0.282952
R503 VOUT.n261 VOUT 0.263431
R504 VIN VOUT.n363 0.259121
R505 VOUT.n182 VOUT.n181 0.258175
R506 VOUT.n164 VOUT.n163 0.155672
R507 VOUT.n163 VOUT.n99 0.155672
R508 VOUT.n156 VOUT.n99 0.155672
R509 VOUT.n156 VOUT.n155 0.155672
R510 VOUT.n155 VOUT.n103 0.155672
R511 VOUT.n148 VOUT.n103 0.155672
R512 VOUT.n148 VOUT.n147 0.155672
R513 VOUT.n147 VOUT.n107 0.155672
R514 VOUT.n139 VOUT.n107 0.155672
R515 VOUT.n139 VOUT.n138 0.155672
R516 VOUT.n138 VOUT.n112 0.155672
R517 VOUT.n131 VOUT.n112 0.155672
R518 VOUT.n131 VOUT.n130 0.155672
R519 VOUT.n130 VOUT.n116 0.155672
R520 VOUT.n123 VOUT.n116 0.155672
R521 VOUT.n123 VOUT.n122 0.155672
R522 VOUT.n294 VOUT.n286 0.155672
R523 VOUT.n295 VOUT.n294 0.155672
R524 VOUT.n295 VOUT.n282 0.155672
R525 VOUT.n302 VOUT.n282 0.155672
R526 VOUT.n303 VOUT.n302 0.155672
R527 VOUT.n303 VOUT.n278 0.155672
R528 VOUT.n312 VOUT.n278 0.155672
R529 VOUT.n313 VOUT.n312 0.155672
R530 VOUT.n313 VOUT.n274 0.155672
R531 VOUT.n320 VOUT.n274 0.155672
R532 VOUT.n321 VOUT.n320 0.155672
R533 VOUT.n321 VOUT.n270 0.155672
R534 VOUT.n328 VOUT.n270 0.155672
R535 VOUT.n329 VOUT.n328 0.155672
R536 VOUT.n329 VOUT.n266 0.155672
R537 VOUT.n336 VOUT.n266 0.155672
R538 VOUT.n212 VOUT.n204 0.155672
R539 VOUT.n213 VOUT.n212 0.155672
R540 VOUT.n213 VOUT.n200 0.155672
R541 VOUT.n220 VOUT.n200 0.155672
R542 VOUT.n221 VOUT.n220 0.155672
R543 VOUT.n221 VOUT.n196 0.155672
R544 VOUT.n230 VOUT.n196 0.155672
R545 VOUT.n231 VOUT.n230 0.155672
R546 VOUT.n231 VOUT.n192 0.155672
R547 VOUT.n238 VOUT.n192 0.155672
R548 VOUT.n239 VOUT.n238 0.155672
R549 VOUT.n239 VOUT.n188 0.155672
R550 VOUT.n246 VOUT.n188 0.155672
R551 VOUT.n247 VOUT.n246 0.155672
R552 VOUT.n247 VOUT.n184 0.155672
R553 VOUT.n254 VOUT.n184 0.155672
R554 VOUT.n51 VOUT.n43 0.155672
R555 VOUT.n52 VOUT.n51 0.155672
R556 VOUT.n52 VOUT.n39 0.155672
R557 VOUT.n59 VOUT.n39 0.155672
R558 VOUT.n60 VOUT.n59 0.155672
R559 VOUT.n60 VOUT.n35 0.155672
R560 VOUT.n69 VOUT.n35 0.155672
R561 VOUT.n70 VOUT.n69 0.155672
R562 VOUT.n70 VOUT.n31 0.155672
R563 VOUT.n77 VOUT.n31 0.155672
R564 VOUT.n78 VOUT.n77 0.155672
R565 VOUT.n78 VOUT.n27 0.155672
R566 VOUT.n85 VOUT.n27 0.155672
R567 VOUT.n86 VOUT.n85 0.155672
R568 VOUT.n86 VOUT.n23 0.155672
R569 VOUT.n93 VOUT.n23 0.155672
R570 VGN VOUT.n3 0.127394
R571 VGP VOUT.n171 0.0989849
R572 VSS.n121 VSS.n50 586.196
R573 VSS.n72 VSS.n48 586.196
R574 VSS.n213 VSS.n25 586.196
R575 VSS.n216 VSS.n10 586.196
R576 VSS.n51 VSS.n50 585
R577 VSS.n50 VSS.n49 585
R578 VSS.n126 VSS.n125 585
R579 VSS.n127 VSS.n126 585
R580 VSS.n42 VSS.n41 585
R581 VSS.n43 VSS.n42 585
R582 VSS.n139 VSS.n138 585
R583 VSS.n138 VSS.n137 585
R584 VSS.n39 VSS.n38 585
R585 VSS.n136 VSS.n38 585
R586 VSS.n144 VSS.n143 585
R587 VSS.n145 VSS.n144 585
R588 VSS.n36 VSS.n35 585
R589 VSS.n146 VSS.n36 585
R590 VSS.n149 VSS.n148 585
R591 VSS.n148 VSS.n147 585
R592 VSS.n33 VSS.n32 585
R593 VSS.n32 VSS.n30 585
R594 VSS.n155 VSS.n154 585
R595 VSS.n156 VSS.n155 585
R596 VSS.n29 VSS.n28 585
R597 VSS.n157 VSS.n29 585
R598 VSS.n160 VSS.n159 585
R599 VSS.n159 VSS.n158 585
R600 VSS.n161 VSS.n25 585
R601 VSS.n25 VSS.n13 585
R602 VSS.n219 VSS.n10 585
R603 VSS.n13 VSS.n10 585
R604 VSS.n220 VSS.n9 585
R605 VSS.n158 VSS.n9 585
R606 VSS.n221 VSS.n8 585
R607 VSS.n157 VSS.n8 585
R608 VSS.n31 VSS.n6 585
R609 VSS.n156 VSS.n31 585
R610 VSS.n225 VSS.n5 585
R611 VSS.n30 VSS.n5 585
R612 VSS.n226 VSS.n4 585
R613 VSS.n147 VSS.n4 585
R614 VSS.n227 VSS.n3 585
R615 VSS.n146 VSS.n3 585
R616 VSS.n37 VSS.n2 585
R617 VSS.n145 VSS.n37 585
R618 VSS.n135 VSS.n134 585
R619 VSS.n136 VSS.n135 585
R620 VSS.n45 VSS.n44 585
R621 VSS.n137 VSS.n44 585
R622 VSS.n130 VSS.n129 585
R623 VSS.n129 VSS.n43 585
R624 VSS.n128 VSS.n47 585
R625 VSS.n128 VSS.n127 585
R626 VSS.n70 VSS.n48 585
R627 VSS.n49 VSS.n48 585
R628 VSS.n217 VSS.n216 585
R629 VSS.n12 VSS.n11 585
R630 VSS.n168 VSS.n167 585
R631 VSS.n171 VSS.n170 585
R632 VSS.n173 VSS.n172 585
R633 VSS.n175 VSS.n174 585
R634 VSS.n177 VSS.n176 585
R635 VSS.n179 VSS.n178 585
R636 VSS.n181 VSS.n180 585
R637 VSS.n183 VSS.n182 585
R638 VSS.n185 VSS.n184 585
R639 VSS.n187 VSS.n186 585
R640 VSS.n189 VSS.n188 585
R641 VSS.n191 VSS.n190 585
R642 VSS.n193 VSS.n192 585
R643 VSS.n196 VSS.n195 585
R644 VSS.n198 VSS.n197 585
R645 VSS.n200 VSS.n199 585
R646 VSS.n202 VSS.n201 585
R647 VSS.n204 VSS.n203 585
R648 VSS.n206 VSS.n205 585
R649 VSS.n208 VSS.n207 585
R650 VSS.n210 VSS.n209 585
R651 VSS.n211 VSS.n26 585
R652 VSS.n213 VSS.n212 585
R653 VSS.n214 VSS.n213 585
R654 VSS.n122 VSS.n121 585
R655 VSS.n53 VSS.n52 585
R656 VSS.n118 VSS.n117 585
R657 VSS.n119 VSS.n118 585
R658 VSS.n116 VSS.n65 585
R659 VSS.n115 VSS.n114 585
R660 VSS.n113 VSS.n112 585
R661 VSS.n111 VSS.n110 585
R662 VSS.n109 VSS.n108 585
R663 VSS.n107 VSS.n106 585
R664 VSS.n105 VSS.n104 585
R665 VSS.n102 VSS.n101 585
R666 VSS.n100 VSS.n99 585
R667 VSS.n98 VSS.n97 585
R668 VSS.n96 VSS.n95 585
R669 VSS.n94 VSS.n93 585
R670 VSS.n92 VSS.n91 585
R671 VSS.n90 VSS.n89 585
R672 VSS.n88 VSS.n87 585
R673 VSS.n86 VSS.n85 585
R674 VSS.n84 VSS.n83 585
R675 VSS.n82 VSS.n81 585
R676 VSS.n80 VSS.n79 585
R677 VSS.n77 VSS.n76 585
R678 VSS.n75 VSS.n74 585
R679 VSS.n73 VSS.n72 585
R680 VSS.n163 VSS.t7 393
R681 VSS.n165 VSS.t3 393
R682 VSS.n68 VSS.t14 393
R683 VSS.n66 VSS.t10 393
R684 VSS.n119 VSS.n49 342.13
R685 VSS.n214 VSS.n13 342.13
R686 VSS.n215 VSS.n214 256.663
R687 VSS.n214 VSS.n14 256.663
R688 VSS.n214 VSS.n15 256.663
R689 VSS.n214 VSS.n16 256.663
R690 VSS.n214 VSS.n17 256.663
R691 VSS.n214 VSS.n18 256.663
R692 VSS.n214 VSS.n19 256.663
R693 VSS.n214 VSS.n20 256.663
R694 VSS.n214 VSS.n21 256.663
R695 VSS.n214 VSS.n22 256.663
R696 VSS.n214 VSS.n23 256.663
R697 VSS.n214 VSS.n24 256.663
R698 VSS.n120 VSS.n119 256.663
R699 VSS.n119 VSS.n54 256.663
R700 VSS.n119 VSS.n55 256.663
R701 VSS.n119 VSS.n56 256.663
R702 VSS.n119 VSS.n57 256.663
R703 VSS.n119 VSS.n58 256.663
R704 VSS.n119 VSS.n59 256.663
R705 VSS.n119 VSS.n60 256.663
R706 VSS.n119 VSS.n61 256.663
R707 VSS.n119 VSS.n62 256.663
R708 VSS.n119 VSS.n63 256.663
R709 VSS.n119 VSS.n64 256.663
R710 VSS.n126 VSS.n50 240.244
R711 VSS.n126 VSS.n42 240.244
R712 VSS.n138 VSS.n42 240.244
R713 VSS.n138 VSS.n38 240.244
R714 VSS.n144 VSS.n38 240.244
R715 VSS.n144 VSS.n36 240.244
R716 VSS.n148 VSS.n36 240.244
R717 VSS.n148 VSS.n32 240.244
R718 VSS.n155 VSS.n32 240.244
R719 VSS.n155 VSS.n29 240.244
R720 VSS.n159 VSS.n29 240.244
R721 VSS.n159 VSS.n25 240.244
R722 VSS.n128 VSS.n48 240.244
R723 VSS.n129 VSS.n128 240.244
R724 VSS.n129 VSS.n44 240.244
R725 VSS.n135 VSS.n44 240.244
R726 VSS.n135 VSS.n37 240.244
R727 VSS.n37 VSS.n3 240.244
R728 VSS.n4 VSS.n3 240.244
R729 VSS.n5 VSS.n4 240.244
R730 VSS.n31 VSS.n5 240.244
R731 VSS.n31 VSS.n8 240.244
R732 VSS.n9 VSS.n8 240.244
R733 VSS.n10 VSS.n9 240.244
R734 VSS.n127 VSS.n49 207.352
R735 VSS.n137 VSS.n43 207.352
R736 VSS.n137 VSS.n136 207.352
R737 VSS.n147 VSS.n30 207.352
R738 VSS.n156 VSS.n30 207.352
R739 VSS.n157 VSS.n156 207.352
R740 VSS.n158 VSS.n13 207.352
R741 VSS.t11 VSS.n43 182.47
R742 VSS.t1 VSS.n146 174.175
R743 VSS.n158 VSS.t4 165.881
R744 VSS.n118 VSS.n53 163.367
R745 VSS.n118 VSS.n65 163.367
R746 VSS.n114 VSS.n113 163.367
R747 VSS.n110 VSS.n109 163.367
R748 VSS.n106 VSS.n105 163.367
R749 VSS.n101 VSS.n100 163.367
R750 VSS.n97 VSS.n96 163.367
R751 VSS.n93 VSS.n92 163.367
R752 VSS.n89 VSS.n88 163.367
R753 VSS.n85 VSS.n84 163.367
R754 VSS.n81 VSS.n80 163.367
R755 VSS.n76 VSS.n75 163.367
R756 VSS.n213 VSS.n26 163.367
R757 VSS.n209 VSS.n208 163.367
R758 VSS.n205 VSS.n204 163.367
R759 VSS.n201 VSS.n200 163.367
R760 VSS.n197 VSS.n196 163.367
R761 VSS.n192 VSS.n191 163.367
R762 VSS.n188 VSS.n187 163.367
R763 VSS.n184 VSS.n183 163.367
R764 VSS.n180 VSS.n179 163.367
R765 VSS.n176 VSS.n175 163.367
R766 VSS.n172 VSS.n171 163.367
R767 VSS.n167 VSS.n12 163.367
R768 VSS.t0 VSS.n145 136.852
R769 VSS.n163 VSS.t8 131.357
R770 VSS.n165 VSS.t5 131.357
R771 VSS.n68 VSS.t16 131.357
R772 VSS.n66 VSS.t13 131.357
R773 VSS.n164 VSS.t9 119.915
R774 VSS.n166 VSS.t6 119.915
R775 VSS.n69 VSS.t15 119.915
R776 VSS.n67 VSS.t12 119.915
R777 VSS.n145 VSS.t2 107.823
R778 VSS.n136 VSS.t2 99.5292
R779 VSS.n121 VSS.n120 71.676
R780 VSS.n65 VSS.n54 71.676
R781 VSS.n113 VSS.n55 71.676
R782 VSS.n109 VSS.n56 71.676
R783 VSS.n105 VSS.n57 71.676
R784 VSS.n100 VSS.n58 71.676
R785 VSS.n96 VSS.n59 71.676
R786 VSS.n92 VSS.n60 71.676
R787 VSS.n88 VSS.n61 71.676
R788 VSS.n84 VSS.n62 71.676
R789 VSS.n80 VSS.n63 71.676
R790 VSS.n75 VSS.n64 71.676
R791 VSS.n209 VSS.n24 71.676
R792 VSS.n205 VSS.n23 71.676
R793 VSS.n201 VSS.n22 71.676
R794 VSS.n197 VSS.n21 71.676
R795 VSS.n192 VSS.n20 71.676
R796 VSS.n188 VSS.n19 71.676
R797 VSS.n184 VSS.n18 71.676
R798 VSS.n180 VSS.n17 71.676
R799 VSS.n176 VSS.n16 71.676
R800 VSS.n172 VSS.n15 71.676
R801 VSS.n167 VSS.n14 71.676
R802 VSS.n216 VSS.n215 71.676
R803 VSS.n215 VSS.n12 71.676
R804 VSS.n171 VSS.n14 71.676
R805 VSS.n175 VSS.n15 71.676
R806 VSS.n179 VSS.n16 71.676
R807 VSS.n183 VSS.n17 71.676
R808 VSS.n187 VSS.n18 71.676
R809 VSS.n191 VSS.n19 71.676
R810 VSS.n196 VSS.n20 71.676
R811 VSS.n200 VSS.n21 71.676
R812 VSS.n204 VSS.n22 71.676
R813 VSS.n208 VSS.n23 71.676
R814 VSS.n26 VSS.n24 71.676
R815 VSS.n120 VSS.n53 71.676
R816 VSS.n114 VSS.n54 71.676
R817 VSS.n110 VSS.n55 71.676
R818 VSS.n106 VSS.n56 71.676
R819 VSS.n101 VSS.n57 71.676
R820 VSS.n97 VSS.n58 71.676
R821 VSS.n93 VSS.n59 71.676
R822 VSS.n89 VSS.n60 71.676
R823 VSS.n85 VSS.n61 71.676
R824 VSS.n81 VSS.n62 71.676
R825 VSS.n76 VSS.n63 71.676
R826 VSS.n72 VSS.n64 71.676
R827 VSS.n146 VSS.t0 70.5
R828 VSS.n194 VSS.n164 47.5157
R829 VSS.n169 VSS.n166 47.5157
R830 VSS.t4 VSS.n157 41.4708
R831 VSS.n78 VSS.n69 34.3278
R832 VSS.n103 VSS.n67 34.3278
R833 VSS.n147 VSS.t1 33.1768
R834 VSS.n212 VSS.n162 28.2837
R835 VSS.n218 VSS.n217 28.2837
R836 VSS.n123 VSS.n122 28.2837
R837 VSS.n73 VSS.n71 28.2837
R838 VSS.n127 VSS.t11 24.8827
R839 VSS.n125 VSS.n51 19.3944
R840 VSS.n125 VSS.n41 19.3944
R841 VSS.n139 VSS.n41 19.3944
R842 VSS.n139 VSS.n39 19.3944
R843 VSS.n143 VSS.n39 19.3944
R844 VSS.n143 VSS.n35 19.3944
R845 VSS.n149 VSS.n35 19.3944
R846 VSS.n149 VSS.n33 19.3944
R847 VSS.n154 VSS.n33 19.3944
R848 VSS.n154 VSS.n28 19.3944
R849 VSS.n160 VSS.n28 19.3944
R850 VSS.n161 VSS.n160 19.3944
R851 VSS.n70 VSS.n47 19.3944
R852 VSS.n130 VSS.n47 19.3944
R853 VSS.n130 VSS.n45 19.3944
R854 VSS.n134 VSS.n45 19.3944
R855 VSS.n134 VSS.n2 19.3944
R856 VSS.n227 VSS.n2 19.3944
R857 VSS.n227 VSS.n226 19.3944
R858 VSS.n226 VSS.n225 19.3944
R859 VSS.n225 VSS.n6 19.3944
R860 VSS.n221 VSS.n6 19.3944
R861 VSS.n221 VSS.n220 19.3944
R862 VSS.n220 VSS.n219 19.3944
R863 VSS.n164 VSS.n163 11.4429
R864 VSS.n166 VSS.n165 11.4429
R865 VSS.n69 VSS.n68 11.4429
R866 VSS.n67 VSS.n66 11.4429
R867 VSS.n212 VSS.n211 10.6151
R868 VSS.n211 VSS.n210 10.6151
R869 VSS.n210 VSS.n207 10.6151
R870 VSS.n207 VSS.n206 10.6151
R871 VSS.n206 VSS.n203 10.6151
R872 VSS.n203 VSS.n202 10.6151
R873 VSS.n202 VSS.n199 10.6151
R874 VSS.n199 VSS.n198 10.6151
R875 VSS.n198 VSS.n195 10.6151
R876 VSS.n193 VSS.n190 10.6151
R877 VSS.n190 VSS.n189 10.6151
R878 VSS.n189 VSS.n186 10.6151
R879 VSS.n186 VSS.n185 10.6151
R880 VSS.n185 VSS.n182 10.6151
R881 VSS.n182 VSS.n181 10.6151
R882 VSS.n181 VSS.n178 10.6151
R883 VSS.n178 VSS.n177 10.6151
R884 VSS.n177 VSS.n174 10.6151
R885 VSS.n174 VSS.n173 10.6151
R886 VSS.n173 VSS.n170 10.6151
R887 VSS.n168 VSS.n11 10.6151
R888 VSS.n217 VSS.n11 10.6151
R889 VSS.n122 VSS.n52 10.6151
R890 VSS.n117 VSS.n52 10.6151
R891 VSS.n117 VSS.n116 10.6151
R892 VSS.n116 VSS.n115 10.6151
R893 VSS.n115 VSS.n112 10.6151
R894 VSS.n112 VSS.n111 10.6151
R895 VSS.n111 VSS.n108 10.6151
R896 VSS.n108 VSS.n107 10.6151
R897 VSS.n107 VSS.n104 10.6151
R898 VSS.n102 VSS.n99 10.6151
R899 VSS.n99 VSS.n98 10.6151
R900 VSS.n98 VSS.n95 10.6151
R901 VSS.n95 VSS.n94 10.6151
R902 VSS.n94 VSS.n91 10.6151
R903 VSS.n91 VSS.n90 10.6151
R904 VSS.n90 VSS.n87 10.6151
R905 VSS.n87 VSS.n86 10.6151
R906 VSS.n86 VSS.n83 10.6151
R907 VSS.n83 VSS.n82 10.6151
R908 VSS.n82 VSS.n79 10.6151
R909 VSS.n77 VSS.n74 10.6151
R910 VSS.n74 VSS.n73 10.6151
R911 VSS.n226 VSS.n0 9.3005
R912 VSS.n225 VSS.n224 9.3005
R913 VSS.n223 VSS.n6 9.3005
R914 VSS.n222 VSS.n221 9.3005
R915 VSS.n220 VSS.n7 9.3005