

.subckt CurrentMirror VREF VCOPY VSS
XA VREF VREF VSS VSS sky130_fd_pr__nfet_01v8 l=0.5 w=3 m=2 nf=1
XB VCOPY VREF VSS VSS sky130_fd_pr__nfet_01v8 l=0.5 w=3 m=2 nf=1
XDUMMY VSS VSS VSS VSS sky130_fd_pr__nfet_01v8 l=0.5 w=3 m=2
.ends CurrentMirror