

.subckt CurrentMirror VREF VCOPY VDD
XA VREF VREF VDD VDD sky130_fd_pr__pfet_01v8 l=1 w=3 m=2 nf=1
XB VCOPY VREF VDD VDD sky130_fd_pr__pfet_01v8 l=1 w=3 m=2 nf=1
XDUMMY VDD VDD VDD VDD sky130_fd_pr__pfet_01v8 l=1 w=3 m=2
.ends CurrentMirror