* NGSPICE file created from diff_pair_sample_1648.ext - technology: sky130A

.subckt diff_pair_sample_1648 VTAIL VN VP B VDD2 VDD1
X0 VTAIL.t5 VP.t0 VDD1.t2 B.t1 sky130_fd_pr__nfet_01v8 ad=5.5185 pd=29.08 as=2.33475 ps=14.48 w=14.15 l=2.01
X1 B.t17 B.t15 B.t16 B.t12 sky130_fd_pr__nfet_01v8 ad=5.5185 pd=29.08 as=0 ps=0 w=14.15 l=2.01
X2 VDD1.t1 VP.t1 VTAIL.t4 B.t3 sky130_fd_pr__nfet_01v8 ad=2.33475 pd=14.48 as=5.5185 ps=29.08 w=14.15 l=2.01
X3 VDD1.t0 VP.t2 VTAIL.t3 B.t2 sky130_fd_pr__nfet_01v8 ad=2.33475 pd=14.48 as=5.5185 ps=29.08 w=14.15 l=2.01
X4 VTAIL.t1 VN.t0 VDD2.t3 B.t1 sky130_fd_pr__nfet_01v8 ad=5.5185 pd=29.08 as=2.33475 ps=14.48 w=14.15 l=2.01
X5 VDD2.t2 VN.t1 VTAIL.t7 B.t2 sky130_fd_pr__nfet_01v8 ad=2.33475 pd=14.48 as=5.5185 ps=29.08 w=14.15 l=2.01
X6 VTAIL.t2 VP.t3 VDD1.t3 B.t0 sky130_fd_pr__nfet_01v8 ad=5.5185 pd=29.08 as=2.33475 ps=14.48 w=14.15 l=2.01
X7 VDD2.t1 VN.t2 VTAIL.t6 B.t3 sky130_fd_pr__nfet_01v8 ad=2.33475 pd=14.48 as=5.5185 ps=29.08 w=14.15 l=2.01
X8 B.t14 B.t11 B.t13 B.t12 sky130_fd_pr__nfet_01v8 ad=5.5185 pd=29.08 as=0 ps=0 w=14.15 l=2.01
X9 B.t10 B.t8 B.t9 B.t5 sky130_fd_pr__nfet_01v8 ad=5.5185 pd=29.08 as=0 ps=0 w=14.15 l=2.01
X10 VTAIL.t0 VN.t3 VDD2.t0 B.t0 sky130_fd_pr__nfet_01v8 ad=5.5185 pd=29.08 as=2.33475 ps=14.48 w=14.15 l=2.01
X11 B.t7 B.t4 B.t6 B.t5 sky130_fd_pr__nfet_01v8 ad=5.5185 pd=29.08 as=0 ps=0 w=14.15 l=2.01
R0 VP.n2 VP.t3 205.304
R1 VP.n2 VP.t1 204.77
R2 VP.n4 VP.t0 169.66
R3 VP.n11 VP.t2 169.66
R4 VP.n10 VP.n0 161.3
R5 VP.n9 VP.n8 161.3
R6 VP.n7 VP.n1 161.3
R7 VP.n6 VP.n5 161.3
R8 VP.n4 VP.n3 90.2042
R9 VP.n12 VP.n11 90.2042
R10 VP.n9 VP.n1 56.5193
R11 VP.n3 VP.n2 53.3438
R12 VP.n5 VP.n1 24.4675
R13 VP.n10 VP.n9 24.4675
R14 VP.n5 VP.n4 20.5528
R15 VP.n11 VP.n10 20.5528
R16 VP.n6 VP.n3 0.278367
R17 VP.n12 VP.n0 0.278367
R18 VP.n7 VP.n6 0.189894
R19 VP.n8 VP.n7 0.189894
R20 VP.n8 VP.n0 0.189894
R21 VP VP.n12 0.153454
R22 VDD1 VDD1.n1 107.965
R23 VDD1 VDD1.n0 65.533
R24 VDD1.n0 VDD1.t3 1.39979
R25 VDD1.n0 VDD1.t1 1.39979
R26 VDD1.n1 VDD1.t2 1.39979
R27 VDD1.n1 VDD1.t0 1.39979
R28 VTAIL.n618 VTAIL.n546 289.615
R29 VTAIL.n72 VTAIL.n0 289.615
R30 VTAIL.n150 VTAIL.n78 289.615
R31 VTAIL.n228 VTAIL.n156 289.615
R32 VTAIL.n540 VTAIL.n468 289.615
R33 VTAIL.n462 VTAIL.n390 289.615
R34 VTAIL.n384 VTAIL.n312 289.615
R35 VTAIL.n306 VTAIL.n234 289.615
R36 VTAIL.n570 VTAIL.n569 185
R37 VTAIL.n575 VTAIL.n574 185
R38 VTAIL.n577 VTAIL.n576 185
R39 VTAIL.n566 VTAIL.n565 185
R40 VTAIL.n583 VTAIL.n582 185
R41 VTAIL.n585 VTAIL.n584 185
R42 VTAIL.n562 VTAIL.n561 185
R43 VTAIL.n591 VTAIL.n590 185
R44 VTAIL.n593 VTAIL.n592 185
R45 VTAIL.n558 VTAIL.n557 185
R46 VTAIL.n599 VTAIL.n598 185
R47 VTAIL.n601 VTAIL.n600 185
R48 VTAIL.n554 VTAIL.n553 185
R49 VTAIL.n607 VTAIL.n606 185
R50 VTAIL.n609 VTAIL.n608 185
R51 VTAIL.n550 VTAIL.n549 185
R52 VTAIL.n616 VTAIL.n615 185
R53 VTAIL.n617 VTAIL.n548 185
R54 VTAIL.n619 VTAIL.n618 185
R55 VTAIL.n24 VTAIL.n23 185
R56 VTAIL.n29 VTAIL.n28 185
R57 VTAIL.n31 VTAIL.n30 185
R58 VTAIL.n20 VTAIL.n19 185
R59 VTAIL.n37 VTAIL.n36 185
R60 VTAIL.n39 VTAIL.n38 185
R61 VTAIL.n16 VTAIL.n15 185
R62 VTAIL.n45 VTAIL.n44 185
R63 VTAIL.n47 VTAIL.n46 185
R64 VTAIL.n12 VTAIL.n11 185
R65 VTAIL.n53 VTAIL.n52 185
R66 VTAIL.n55 VTAIL.n54 185
R67 VTAIL.n8 VTAIL.n7 185
R68 VTAIL.n61 VTAIL.n60 185
R69 VTAIL.n63 VTAIL.n62 185
R70 VTAIL.n4 VTAIL.n3 185
R71 VTAIL.n70 VTAIL.n69 185
R72 VTAIL.n71 VTAIL.n2 185
R73 VTAIL.n73 VTAIL.n72 185
R74 VTAIL.n102 VTAIL.n101 185
R75 VTAIL.n107 VTAIL.n106 185
R76 VTAIL.n109 VTAIL.n108 185
R77 VTAIL.n98 VTAIL.n97 185
R78 VTAIL.n115 VTAIL.n114 185
R79 VTAIL.n117 VTAIL.n116 185
R80 VTAIL.n94 VTAIL.n93 185
R81 VTAIL.n123 VTAIL.n122 185
R82 VTAIL.n125 VTAIL.n124 185
R83 VTAIL.n90 VTAIL.n89 185
R84 VTAIL.n131 VTAIL.n130 185
R85 VTAIL.n133 VTAIL.n132 185
R86 VTAIL.n86 VTAIL.n85 185
R87 VTAIL.n139 VTAIL.n138 185
R88 VTAIL.n141 VTAIL.n140 185
R89 VTAIL.n82 VTAIL.n81 185
R90 VTAIL.n148 VTAIL.n147 185
R91 VTAIL.n149 VTAIL.n80 185
R92 VTAIL.n151 VTAIL.n150 185
R93 VTAIL.n180 VTAIL.n179 185
R94 VTAIL.n185 VTAIL.n184 185
R95 VTAIL.n187 VTAIL.n186 185
R96 VTAIL.n176 VTAIL.n175 185
R97 VTAIL.n193 VTAIL.n192 185
R98 VTAIL.n195 VTAIL.n194 185
R99 VTAIL.n172 VTAIL.n171 185
R100 VTAIL.n201 VTAIL.n200 185
R101 VTAIL.n203 VTAIL.n202 185
R102 VTAIL.n168 VTAIL.n167 185
R103 VTAIL.n209 VTAIL.n208 185
R104 VTAIL.n211 VTAIL.n210 185
R105 VTAIL.n164 VTAIL.n163 185
R106 VTAIL.n217 VTAIL.n216 185
R107 VTAIL.n219 VTAIL.n218 185
R108 VTAIL.n160 VTAIL.n159 185
R109 VTAIL.n226 VTAIL.n225 185
R110 VTAIL.n227 VTAIL.n158 185
R111 VTAIL.n229 VTAIL.n228 185
R112 VTAIL.n541 VTAIL.n540 185
R113 VTAIL.n539 VTAIL.n470 185
R114 VTAIL.n538 VTAIL.n537 185
R115 VTAIL.n473 VTAIL.n471 185
R116 VTAIL.n532 VTAIL.n531 185
R117 VTAIL.n530 VTAIL.n529 185
R118 VTAIL.n477 VTAIL.n476 185
R119 VTAIL.n524 VTAIL.n523 185
R120 VTAIL.n522 VTAIL.n521 185
R121 VTAIL.n481 VTAIL.n480 185
R122 VTAIL.n516 VTAIL.n515 185
R123 VTAIL.n514 VTAIL.n513 185
R124 VTAIL.n485 VTAIL.n484 185
R125 VTAIL.n508 VTAIL.n507 185
R126 VTAIL.n506 VTAIL.n505 185
R127 VTAIL.n489 VTAIL.n488 185
R128 VTAIL.n500 VTAIL.n499 185
R129 VTAIL.n498 VTAIL.n497 185
R130 VTAIL.n493 VTAIL.n492 185
R131 VTAIL.n463 VTAIL.n462 185
R132 VTAIL.n461 VTAIL.n392 185
R133 VTAIL.n460 VTAIL.n459 185
R134 VTAIL.n395 VTAIL.n393 185
R135 VTAIL.n454 VTAIL.n453 185
R136 VTAIL.n452 VTAIL.n451 185
R137 VTAIL.n399 VTAIL.n398 185
R138 VTAIL.n446 VTAIL.n445 185
R139 VTAIL.n444 VTAIL.n443 185
R140 VTAIL.n403 VTAIL.n402 185
R141 VTAIL.n438 VTAIL.n437 185
R142 VTAIL.n436 VTAIL.n435 185
R143 VTAIL.n407 VTAIL.n406 185
R144 VTAIL.n430 VTAIL.n429 185
R145 VTAIL.n428 VTAIL.n427 185
R146 VTAIL.n411 VTAIL.n410 185
R147 VTAIL.n422 VTAIL.n421 185
R148 VTAIL.n420 VTAIL.n419 185
R149 VTAIL.n415 VTAIL.n414 185
R150 VTAIL.n385 VTAIL.n384 185
R151 VTAIL.n383 VTAIL.n314 185
R152 VTAIL.n382 VTAIL.n381 185
R153 VTAIL.n317 VTAIL.n315 185
R154 VTAIL.n376 VTAIL.n375 185
R155 VTAIL.n374 VTAIL.n373 185
R156 VTAIL.n321 VTAIL.n320 185
R157 VTAIL.n368 VTAIL.n367 185
R158 VTAIL.n366 VTAIL.n365 185
R159 VTAIL.n325 VTAIL.n324 185
R160 VTAIL.n360 VTAIL.n359 185
R161 VTAIL.n358 VTAIL.n357 185
R162 VTAIL.n329 VTAIL.n328 185
R163 VTAIL.n352 VTAIL.n351 185
R164 VTAIL.n350 VTAIL.n349 185
R165 VTAIL.n333 VTAIL.n332 185
R166 VTAIL.n344 VTAIL.n343 185
R167 VTAIL.n342 VTAIL.n341 185
R168 VTAIL.n337 VTAIL.n336 185
R169 VTAIL.n307 VTAIL.n306 185
R170 VTAIL.n305 VTAIL.n236 185
R171 VTAIL.n304 VTAIL.n303 185
R172 VTAIL.n239 VTAIL.n237 185
R173 VTAIL.n298 VTAIL.n297 185
R174 VTAIL.n296 VTAIL.n295 185
R175 VTAIL.n243 VTAIL.n242 185
R176 VTAIL.n290 VTAIL.n289 185
R177 VTAIL.n288 VTAIL.n287 185
R178 VTAIL.n247 VTAIL.n246 185
R179 VTAIL.n282 VTAIL.n281 185
R180 VTAIL.n280 VTAIL.n279 185
R181 VTAIL.n251 VTAIL.n250 185
R182 VTAIL.n274 VTAIL.n273 185
R183 VTAIL.n272 VTAIL.n271 185
R184 VTAIL.n255 VTAIL.n254 185
R185 VTAIL.n266 VTAIL.n265 185
R186 VTAIL.n264 VTAIL.n263 185
R187 VTAIL.n259 VTAIL.n258 185
R188 VTAIL.n571 VTAIL.t6 147.659
R189 VTAIL.n25 VTAIL.t0 147.659
R190 VTAIL.n103 VTAIL.t3 147.659
R191 VTAIL.n181 VTAIL.t5 147.659
R192 VTAIL.n494 VTAIL.t4 147.659
R193 VTAIL.n416 VTAIL.t2 147.659
R194 VTAIL.n338 VTAIL.t7 147.659
R195 VTAIL.n260 VTAIL.t1 147.659
R196 VTAIL.n575 VTAIL.n569 104.615
R197 VTAIL.n576 VTAIL.n575 104.615
R198 VTAIL.n576 VTAIL.n565 104.615
R199 VTAIL.n583 VTAIL.n565 104.615
R200 VTAIL.n584 VTAIL.n583 104.615
R201 VTAIL.n584 VTAIL.n561 104.615
R202 VTAIL.n591 VTAIL.n561 104.615
R203 VTAIL.n592 VTAIL.n591 104.615
R204 VTAIL.n592 VTAIL.n557 104.615
R205 VTAIL.n599 VTAIL.n557 104.615
R206 VTAIL.n600 VTAIL.n599 104.615
R207 VTAIL.n600 VTAIL.n553 104.615
R208 VTAIL.n607 VTAIL.n553 104.615
R209 VTAIL.n608 VTAIL.n607 104.615
R210 VTAIL.n608 VTAIL.n549 104.615
R211 VTAIL.n616 VTAIL.n549 104.615
R212 VTAIL.n617 VTAIL.n616 104.615
R213 VTAIL.n618 VTAIL.n617 104.615
R214 VTAIL.n29 VTAIL.n23 104.615
R215 VTAIL.n30 VTAIL.n29 104.615
R216 VTAIL.n30 VTAIL.n19 104.615
R217 VTAIL.n37 VTAIL.n19 104.615
R218 VTAIL.n38 VTAIL.n37 104.615
R219 VTAIL.n38 VTAIL.n15 104.615
R220 VTAIL.n45 VTAIL.n15 104.615
R221 VTAIL.n46 VTAIL.n45 104.615
R222 VTAIL.n46 VTAIL.n11 104.615
R223 VTAIL.n53 VTAIL.n11 104.615
R224 VTAIL.n54 VTAIL.n53 104.615
R225 VTAIL.n54 VTAIL.n7 104.615
R226 VTAIL.n61 VTAIL.n7 104.615
R227 VTAIL.n62 VTAIL.n61 104.615
R228 VTAIL.n62 VTAIL.n3 104.615
R229 VTAIL.n70 VTAIL.n3 104.615
R230 VTAIL.n71 VTAIL.n70 104.615
R231 VTAIL.n72 VTAIL.n71 104.615
R232 VTAIL.n107 VTAIL.n101 104.615
R233 VTAIL.n108 VTAIL.n107 104.615
R234 VTAIL.n108 VTAIL.n97 104.615
R235 VTAIL.n115 VTAIL.n97 104.615
R236 VTAIL.n116 VTAIL.n115 104.615
R237 VTAIL.n116 VTAIL.n93 104.615
R238 VTAIL.n123 VTAIL.n93 104.615
R239 VTAIL.n124 VTAIL.n123 104.615
R240 VTAIL.n124 VTAIL.n89 104.615
R241 VTAIL.n131 VTAIL.n89 104.615
R242 VTAIL.n132 VTAIL.n131 104.615
R243 VTAIL.n132 VTAIL.n85 104.615
R244 VTAIL.n139 VTAIL.n85 104.615
R245 VTAIL.n140 VTAIL.n139 104.615
R246 VTAIL.n140 VTAIL.n81 104.615
R247 VTAIL.n148 VTAIL.n81 104.615
R248 VTAIL.n149 VTAIL.n148 104.615
R249 VTAIL.n150 VTAIL.n149 104.615
R250 VTAIL.n185 VTAIL.n179 104.615
R251 VTAIL.n186 VTAIL.n185 104.615
R252 VTAIL.n186 VTAIL.n175 104.615
R253 VTAIL.n193 VTAIL.n175 104.615
R254 VTAIL.n194 VTAIL.n193 104.615
R255 VTAIL.n194 VTAIL.n171 104.615
R256 VTAIL.n201 VTAIL.n171 104.615
R257 VTAIL.n202 VTAIL.n201 104.615
R258 VTAIL.n202 VTAIL.n167 104.615
R259 VTAIL.n209 VTAIL.n167 104.615
R260 VTAIL.n210 VTAIL.n209 104.615
R261 VTAIL.n210 VTAIL.n163 104.615
R262 VTAIL.n217 VTAIL.n163 104.615
R263 VTAIL.n218 VTAIL.n217 104.615
R264 VTAIL.n218 VTAIL.n159 104.615
R265 VTAIL.n226 VTAIL.n159 104.615
R266 VTAIL.n227 VTAIL.n226 104.615
R267 VTAIL.n228 VTAIL.n227 104.615
R268 VTAIL.n540 VTAIL.n539 104.615
R269 VTAIL.n539 VTAIL.n538 104.615
R270 VTAIL.n538 VTAIL.n471 104.615
R271 VTAIL.n531 VTAIL.n471 104.615
R272 VTAIL.n531 VTAIL.n530 104.615
R273 VTAIL.n530 VTAIL.n476 104.615
R274 VTAIL.n523 VTAIL.n476 104.615
R275 VTAIL.n523 VTAIL.n522 104.615
R276 VTAIL.n522 VTAIL.n480 104.615
R277 VTAIL.n515 VTAIL.n480 104.615
R278 VTAIL.n515 VTAIL.n514 104.615
R279 VTAIL.n514 VTAIL.n484 104.615
R280 VTAIL.n507 VTAIL.n484 104.615
R281 VTAIL.n507 VTAIL.n506 104.615
R282 VTAIL.n506 VTAIL.n488 104.615
R283 VTAIL.n499 VTAIL.n488 104.615
R284 VTAIL.n499 VTAIL.n498 104.615
R285 VTAIL.n498 VTAIL.n492 104.615
R286 VTAIL.n462 VTAIL.n461 104.615
R287 VTAIL.n461 VTAIL.n460 104.615
R288 VTAIL.n460 VTAIL.n393 104.615
R289 VTAIL.n453 VTAIL.n393 104.615
R290 VTAIL.n453 VTAIL.n452 104.615
R291 VTAIL.n452 VTAIL.n398 104.615
R292 VTAIL.n445 VTAIL.n398 104.615
R293 VTAIL.n445 VTAIL.n444 104.615
R294 VTAIL.n444 VTAIL.n402 104.615
R295 VTAIL.n437 VTAIL.n402 104.615
R296 VTAIL.n437 VTAIL.n436 104.615
R297 VTAIL.n436 VTAIL.n406 104.615
R298 VTAIL.n429 VTAIL.n406 104.615
R299 VTAIL.n429 VTAIL.n428 104.615
R300 VTAIL.n428 VTAIL.n410 104.615
R301 VTAIL.n421 VTAIL.n410 104.615
R302 VTAIL.n421 VTAIL.n420 104.615
R303 VTAIL.n420 VTAIL.n414 104.615
R304 VTAIL.n384 VTAIL.n383 104.615
R305 VTAIL.n383 VTAIL.n382 104.615
R306 VTAIL.n382 VTAIL.n315 104.615
R307 VTAIL.n375 VTAIL.n315 104.615
R308 VTAIL.n375 VTAIL.n374 104.615
R309 VTAIL.n374 VTAIL.n320 104.615
R310 VTAIL.n367 VTAIL.n320 104.615
R311 VTAIL.n367 VTAIL.n366 104.615
R312 VTAIL.n366 VTAIL.n324 104.615
R313 VTAIL.n359 VTAIL.n324 104.615
R314 VTAIL.n359 VTAIL.n358 104.615
R315 VTAIL.n358 VTAIL.n328 104.615
R316 VTAIL.n351 VTAIL.n328 104.615
R317 VTAIL.n351 VTAIL.n350 104.615
R318 VTAIL.n350 VTAIL.n332 104.615
R319 VTAIL.n343 VTAIL.n332 104.615
R320 VTAIL.n343 VTAIL.n342 104.615
R321 VTAIL.n342 VTAIL.n336 104.615
R322 VTAIL.n306 VTAIL.n305 104.615
R323 VTAIL.n305 VTAIL.n304 104.615
R324 VTAIL.n304 VTAIL.n237 104.615
R325 VTAIL.n297 VTAIL.n237 104.615
R326 VTAIL.n297 VTAIL.n296 104.615
R327 VTAIL.n296 VTAIL.n242 104.615
R328 VTAIL.n289 VTAIL.n242 104.615
R329 VTAIL.n289 VTAIL.n288 104.615
R330 VTAIL.n288 VTAIL.n246 104.615
R331 VTAIL.n281 VTAIL.n246 104.615
R332 VTAIL.n281 VTAIL.n280 104.615
R333 VTAIL.n280 VTAIL.n250 104.615
R334 VTAIL.n273 VTAIL.n250 104.615
R335 VTAIL.n273 VTAIL.n272 104.615
R336 VTAIL.n272 VTAIL.n254 104.615
R337 VTAIL.n265 VTAIL.n254 104.615
R338 VTAIL.n265 VTAIL.n264 104.615
R339 VTAIL.n264 VTAIL.n258 104.615
R340 VTAIL.t6 VTAIL.n569 52.3082
R341 VTAIL.t0 VTAIL.n23 52.3082
R342 VTAIL.t3 VTAIL.n101 52.3082
R343 VTAIL.t5 VTAIL.n179 52.3082
R344 VTAIL.t4 VTAIL.n492 52.3082
R345 VTAIL.t2 VTAIL.n414 52.3082
R346 VTAIL.t7 VTAIL.n336 52.3082
R347 VTAIL.t1 VTAIL.n258 52.3082
R348 VTAIL.n623 VTAIL.n622 36.646
R349 VTAIL.n77 VTAIL.n76 36.646
R350 VTAIL.n155 VTAIL.n154 36.646
R351 VTAIL.n233 VTAIL.n232 36.646
R352 VTAIL.n545 VTAIL.n544 36.646
R353 VTAIL.n467 VTAIL.n466 36.646
R354 VTAIL.n389 VTAIL.n388 36.646
R355 VTAIL.n311 VTAIL.n310 36.646
R356 VTAIL.n623 VTAIL.n545 26.5824
R357 VTAIL.n311 VTAIL.n233 26.5824
R358 VTAIL.n571 VTAIL.n570 15.6677
R359 VTAIL.n25 VTAIL.n24 15.6677
R360 VTAIL.n103 VTAIL.n102 15.6677
R361 VTAIL.n181 VTAIL.n180 15.6677
R362 VTAIL.n494 VTAIL.n493 15.6677
R363 VTAIL.n416 VTAIL.n415 15.6677
R364 VTAIL.n338 VTAIL.n337 15.6677
R365 VTAIL.n260 VTAIL.n259 15.6677
R366 VTAIL.n619 VTAIL.n548 13.1884
R367 VTAIL.n73 VTAIL.n2 13.1884
R368 VTAIL.n151 VTAIL.n80 13.1884
R369 VTAIL.n229 VTAIL.n158 13.1884
R370 VTAIL.n541 VTAIL.n470 13.1884
R371 VTAIL.n463 VTAIL.n392 13.1884
R372 VTAIL.n385 VTAIL.n314 13.1884
R373 VTAIL.n307 VTAIL.n236 13.1884
R374 VTAIL.n574 VTAIL.n573 12.8005
R375 VTAIL.n615 VTAIL.n614 12.8005
R376 VTAIL.n620 VTAIL.n546 12.8005
R377 VTAIL.n28 VTAIL.n27 12.8005
R378 VTAIL.n69 VTAIL.n68 12.8005
R379 VTAIL.n74 VTAIL.n0 12.8005
R380 VTAIL.n106 VTAIL.n105 12.8005
R381 VTAIL.n147 VTAIL.n146 12.8005
R382 VTAIL.n152 VTAIL.n78 12.8005
R383 VTAIL.n184 VTAIL.n183 12.8005
R384 VTAIL.n225 VTAIL.n224 12.8005
R385 VTAIL.n230 VTAIL.n156 12.8005
R386 VTAIL.n542 VTAIL.n468 12.8005
R387 VTAIL.n537 VTAIL.n472 12.8005
R388 VTAIL.n497 VTAIL.n496 12.8005
R389 VTAIL.n464 VTAIL.n390 12.8005
R390 VTAIL.n459 VTAIL.n394 12.8005
R391 VTAIL.n419 VTAIL.n418 12.8005
R392 VTAIL.n386 VTAIL.n312 12.8005
R393 VTAIL.n381 VTAIL.n316 12.8005
R394 VTAIL.n341 VTAIL.n340 12.8005
R395 VTAIL.n308 VTAIL.n234 12.8005
R396 VTAIL.n303 VTAIL.n238 12.8005
R397 VTAIL.n263 VTAIL.n262 12.8005
R398 VTAIL.n577 VTAIL.n568 12.0247
R399 VTAIL.n613 VTAIL.n550 12.0247
R400 VTAIL.n31 VTAIL.n22 12.0247
R401 VTAIL.n67 VTAIL.n4 12.0247
R402 VTAIL.n109 VTAIL.n100 12.0247
R403 VTAIL.n145 VTAIL.n82 12.0247
R404 VTAIL.n187 VTAIL.n178 12.0247
R405 VTAIL.n223 VTAIL.n160 12.0247
R406 VTAIL.n536 VTAIL.n473 12.0247
R407 VTAIL.n500 VTAIL.n491 12.0247
R408 VTAIL.n458 VTAIL.n395 12.0247
R409 VTAIL.n422 VTAIL.n413 12.0247
R410 VTAIL.n380 VTAIL.n317 12.0247
R411 VTAIL.n344 VTAIL.n335 12.0247
R412 VTAIL.n302 VTAIL.n239 12.0247
R413 VTAIL.n266 VTAIL.n257 12.0247
R414 VTAIL.n578 VTAIL.n566 11.249
R415 VTAIL.n610 VTAIL.n609 11.249
R416 VTAIL.n32 VTAIL.n20 11.249
R417 VTAIL.n64 VTAIL.n63 11.249
R418 VTAIL.n110 VTAIL.n98 11.249
R419 VTAIL.n142 VTAIL.n141 11.249
R420 VTAIL.n188 VTAIL.n176 11.249
R421 VTAIL.n220 VTAIL.n219 11.249
R422 VTAIL.n533 VTAIL.n532 11.249
R423 VTAIL.n501 VTAIL.n489 11.249
R424 VTAIL.n455 VTAIL.n454 11.249
R425 VTAIL.n423 VTAIL.n411 11.249
R426 VTAIL.n377 VTAIL.n376 11.249
R427 VTAIL.n345 VTAIL.n333 11.249
R428 VTAIL.n299 VTAIL.n298 11.249
R429 VTAIL.n267 VTAIL.n255 11.249
R430 VTAIL.n582 VTAIL.n581 10.4732
R431 VTAIL.n606 VTAIL.n552 10.4732
R432 VTAIL.n36 VTAIL.n35 10.4732
R433 VTAIL.n60 VTAIL.n6 10.4732
R434 VTAIL.n114 VTAIL.n113 10.4732
R435 VTAIL.n138 VTAIL.n84 10.4732
R436 VTAIL.n192 VTAIL.n191 10.4732
R437 VTAIL.n216 VTAIL.n162 10.4732
R438 VTAIL.n529 VTAIL.n475 10.4732
R439 VTAIL.n505 VTAIL.n504 10.4732
R440 VTAIL.n451 VTAIL.n397 10.4732
R441 VTAIL.n427 VTAIL.n426 10.4732
R442 VTAIL.n373 VTAIL.n319 10.4732
R443 VTAIL.n349 VTAIL.n348 10.4732
R444 VTAIL.n295 VTAIL.n241 10.4732
R445 VTAIL.n271 VTAIL.n270 10.4732
R446 VTAIL.n585 VTAIL.n564 9.69747
R447 VTAIL.n605 VTAIL.n554 9.69747
R448 VTAIL.n39 VTAIL.n18 9.69747
R449 VTAIL.n59 VTAIL.n8 9.69747
R450 VTAIL.n117 VTAIL.n96 9.69747
R451 VTAIL.n137 VTAIL.n86 9.69747
R452 VTAIL.n195 VTAIL.n174 9.69747
R453 VTAIL.n215 VTAIL.n164 9.69747
R454 VTAIL.n528 VTAIL.n477 9.69747
R455 VTAIL.n508 VTAIL.n487 9.69747
R456 VTAIL.n450 VTAIL.n399 9.69747
R457 VTAIL.n430 VTAIL.n409 9.69747
R458 VTAIL.n372 VTAIL.n321 9.69747
R459 VTAIL.n352 VTAIL.n331 9.69747
R460 VTAIL.n294 VTAIL.n243 9.69747
R461 VTAIL.n274 VTAIL.n253 9.69747
R462 VTAIL.n622 VTAIL.n621 9.45567
R463 VTAIL.n76 VTAIL.n75 9.45567
R464 VTAIL.n154 VTAIL.n153 9.45567
R465 VTAIL.n232 VTAIL.n231 9.45567
R466 VTAIL.n544 VTAIL.n543 9.45567
R467 VTAIL.n466 VTAIL.n465 9.45567
R468 VTAIL.n388 VTAIL.n387 9.45567
R469 VTAIL.n310 VTAIL.n309 9.45567
R470 VTAIL.n621 VTAIL.n620 9.3005
R471 VTAIL.n560 VTAIL.n559 9.3005
R472 VTAIL.n589 VTAIL.n588 9.3005
R473 VTAIL.n587 VTAIL.n586 9.3005
R474 VTAIL.n564 VTAIL.n563 9.3005
R475 VTAIL.n581 VTAIL.n580 9.3005
R476 VTAIL.n579 VTAIL.n578 9.3005
R477 VTAIL.n568 VTAIL.n567 9.3005
R478 VTAIL.n573 VTAIL.n572 9.3005
R479 VTAIL.n595 VTAIL.n594 9.3005
R480 VTAIL.n597 VTAIL.n596 9.3005
R481 VTAIL.n556 VTAIL.n555 9.3005
R482 VTAIL.n603 VTAIL.n602 9.3005
R483 VTAIL.n605 VTAIL.n604 9.3005
R484 VTAIL.n552 VTAIL.n551 9.3005
R485 VTAIL.n611 VTAIL.n610 9.3005
R486 VTAIL.n613 VTAIL.n612 9.3005
R487 VTAIL.n614 VTAIL.n547 9.3005
R488 VTAIL.n75 VTAIL.n74 9.3005
R489 VTAIL.n14 VTAIL.n13 9.3005
R490 VTAIL.n43 VTAIL.n42 9.3005
R491 VTAIL.n41 VTAIL.n40 9.3005
R492 VTAIL.n18 VTAIL.n17 9.3005
R493 VTAIL.n35 VTAIL.n34 9.3005
R494 VTAIL.n33 VTAIL.n32 9.3005
R495 VTAIL.n22 VTAIL.n21 9.3005
R496 VTAIL.n27 VTAIL.n26 9.3005
R497 VTAIL.n49 VTAIL.n48 9.3005
R498 VTAIL.n51 VTAIL.n50 9.3005
R499 VTAIL.n10 VTAIL.n9 9.3005
R500 VTAIL.n57 VTAIL.n56 9.3005
R501 VTAIL.n59 VTAIL.n58 9.3005
R502 VTAIL.n6 VTAIL.n5 9.3005
R503 VTAIL.n65 VTAIL.n64 9.3005
R504 VTAIL.n67 VTAIL.n66 9.3005
R505 VTAIL.n68 VTAIL.n1 9.3005
R506 VTAIL.n153 VTAIL.n152 9.3005
R507 VTAIL.n92 VTAIL.n91 9.3005
R508 VTAIL.n121 VTAIL.n120 9.3005
R509 VTAIL.n119 VTAIL.n118 9.3005
R510 VTAIL.n96 VTAIL.n95 9.3005
R511 VTAIL.n113 VTAIL.n112 9.3005
R512 VTAIL.n111 VTAIL.n110 9.3005
R513 VTAIL.n100 VTAIL.n99 9.3005
R514 VTAIL.n105 VTAIL.n104 9.3005
R515 VTAIL.n127 VTAIL.n126 9.3005
R516 VTAIL.n129 VTAIL.n128 9.3005
R517 VTAIL.n88 VTAIL.n87 9.3005
R518 VTAIL.n135 VTAIL.n134 9.3005
R519 VTAIL.n137 VTAIL.n136 9.3005
R520 VTAIL.n84 VTAIL.n83 9.3005
R521 VTAIL.n143 VTAIL.n142 9.3005
R522 VTAIL.n145 VTAIL.n144 9.3005
R523 VTAIL.n146 VTAIL.n79 9.3005
R524 VTAIL.n231 VTAIL.n230 9.3005
R525 VTAIL.n170 VTAIL.n169 9.3005
R526 VTAIL.n199 VTAIL.n198 9.3005
R527 VTAIL.n197 VTAIL.n196 9.3005
R528 VTAIL.n174 VTAIL.n173 9.3005
R529 VTAIL.n191 VTAIL.n190 9.3005
R530 VTAIL.n189 VTAIL.n188 9.3005
R531 VTAIL.n178 VTAIL.n177 9.3005
R532 VTAIL.n183 VTAIL.n182 9.3005
R533 VTAIL.n205 VTAIL.n204 9.3005
R534 VTAIL.n207 VTAIL.n206 9.3005
R535 VTAIL.n166 VTAIL.n165 9.3005
R536 VTAIL.n213 VTAIL.n212 9.3005
R537 VTAIL.n215 VTAIL.n214 9.3005
R538 VTAIL.n162 VTAIL.n161 9.3005
R539 VTAIL.n221 VTAIL.n220 9.3005
R540 VTAIL.n223 VTAIL.n222 9.3005
R541 VTAIL.n224 VTAIL.n157 9.3005
R542 VTAIL.n520 VTAIL.n519 9.3005
R543 VTAIL.n479 VTAIL.n478 9.3005
R544 VTAIL.n526 VTAIL.n525 9.3005
R545 VTAIL.n528 VTAIL.n527 9.3005
R546 VTAIL.n475 VTAIL.n474 9.3005
R547 VTAIL.n534 VTAIL.n533 9.3005
R548 VTAIL.n536 VTAIL.n535 9.3005
R549 VTAIL.n472 VTAIL.n469 9.3005
R550 VTAIL.n543 VTAIL.n542 9.3005
R551 VTAIL.n518 VTAIL.n517 9.3005
R552 VTAIL.n483 VTAIL.n482 9.3005
R553 VTAIL.n512 VTAIL.n511 9.3005
R554 VTAIL.n510 VTAIL.n509 9.3005
R555 VTAIL.n487 VTAIL.n486 9.3005
R556 VTAIL.n504 VTAIL.n503 9.3005
R557 VTAIL.n502 VTAIL.n501 9.3005
R558 VTAIL.n491 VTAIL.n490 9.3005
R559 VTAIL.n496 VTAIL.n495 9.3005
R560 VTAIL.n442 VTAIL.n441 9.3005
R561 VTAIL.n401 VTAIL.n400 9.3005
R562 VTAIL.n448 VTAIL.n447 9.3005
R563 VTAIL.n450 VTAIL.n449 9.3005
R564 VTAIL.n397 VTAIL.n396 9.3005
R565 VTAIL.n456 VTAIL.n455 9.3005
R566 VTAIL.n458 VTAIL.n457 9.3005
R567 VTAIL.n394 VTAIL.n391 9.3005
R568 VTAIL.n465 VTAIL.n464 9.3005
R569 VTAIL.n440 VTAIL.n439 9.3005
R570 VTAIL.n405 VTAIL.n404 9.3005
R571 VTAIL.n434 VTAIL.n433 9.3005
R572 VTAIL.n432 VTAIL.n431 9.3005
R573 VTAIL.n409 VTAIL.n408 9.3005
R574 VTAIL.n426 VTAIL.n425 9.3005
R575 VTAIL.n424 VTAIL.n423 9.3005
R576 VTAIL.n413 VTAIL.n412 9.3005
R577 VTAIL.n418 VTAIL.n417 9.3005
R578 VTAIL.n364 VTAIL.n363 9.3005
R579 VTAIL.n323 VTAIL.n322 9.3005
R580 VTAIL.n370 VTAIL.n369 9.3005
R581 VTAIL.n372 VTAIL.n371 9.3005
R582 VTAIL.n319 VTAIL.n318 9.3005
R583 VTAIL.n378 VTAIL.n377 9.3005
R584 VTAIL.n380 VTAIL.n379 9.3005
R585 VTAIL.n316 VTAIL.n313 9.3005
R586 VTAIL.n387 VTAIL.n386 9.3005
R587 VTAIL.n362 VTAIL.n361 9.3005
R588 VTAIL.n327 VTAIL.n326 9.3005
R589 VTAIL.n356 VTAIL.n355 9.3005
R590 VTAIL.n354 VTAIL.n353 9.3005
R591 VTAIL.n331 VTAIL.n330 9.3005
R592 VTAIL.n348 VTAIL.n347 9.3005
R593 VTAIL.n346 VTAIL.n345 9.3005
R594 VTAIL.n335 VTAIL.n334 9.3005
R595 VTAIL.n340 VTAIL.n339 9.3005
R596 VTAIL.n286 VTAIL.n285 9.3005
R597 VTAIL.n245 VTAIL.n244 9.3005
R598 VTAIL.n292 VTAIL.n291 9.3005
R599 VTAIL.n294 VTAIL.n293 9.3005
R600 VTAIL.n241 VTAIL.n240 9.3005
R601 VTAIL.n300 VTAIL.n299 9.3005
R602 VTAIL.n302 VTAIL.n301 9.3005
R603 VTAIL.n238 VTAIL.n235 9.3005
R604 VTAIL.n309 VTAIL.n308 9.3005
R605 VTAIL.n284 VTAIL.n283 9.3005
R606 VTAIL.n249 VTAIL.n248 9.3005
R607 VTAIL.n278 VTAIL.n277 9.3005
R608 VTAIL.n276 VTAIL.n275 9.3005
R609 VTAIL.n253 VTAIL.n252 9.3005
R610 VTAIL.n270 VTAIL.n269 9.3005
R611 VTAIL.n268 VTAIL.n267 9.3005
R612 VTAIL.n257 VTAIL.n256 9.3005
R613 VTAIL.n262 VTAIL.n261 9.3005
R614 VTAIL.n586 VTAIL.n562 8.92171
R615 VTAIL.n602 VTAIL.n601 8.92171
R616 VTAIL.n40 VTAIL.n16 8.92171
R617 VTAIL.n56 VTAIL.n55 8.92171
R618 VTAIL.n118 VTAIL.n94 8.92171
R619 VTAIL.n134 VTAIL.n133 8.92171
R620 VTAIL.n196 VTAIL.n172 8.92171
R621 VTAIL.n212 VTAIL.n211 8.92171
R622 VTAIL.n525 VTAIL.n524 8.92171
R623 VTAIL.n509 VTAIL.n485 8.92171
R624 VTAIL.n447 VTAIL.n446 8.92171
R625 VTAIL.n431 VTAIL.n407 8.92171
R626 VTAIL.n369 VTAIL.n368 8.92171
R627 VTAIL.n353 VTAIL.n329 8.92171
R628 VTAIL.n291 VTAIL.n290 8.92171
R629 VTAIL.n275 VTAIL.n251 8.92171
R630 VTAIL.n590 VTAIL.n589 8.14595
R631 VTAIL.n598 VTAIL.n556 8.14595
R632 VTAIL.n44 VTAIL.n43 8.14595
R633 VTAIL.n52 VTAIL.n10 8.14595
R634 VTAIL.n122 VTAIL.n121 8.14595
R635 VTAIL.n130 VTAIL.n88 8.14595
R636 VTAIL.n200 VTAIL.n199 8.14595
R637 VTAIL.n208 VTAIL.n166 8.14595
R638 VTAIL.n521 VTAIL.n479 8.14595
R639 VTAIL.n513 VTAIL.n512 8.14595
R640 VTAIL.n443 VTAIL.n401 8.14595
R641 VTAIL.n435 VTAIL.n434 8.14595
R642 VTAIL.n365 VTAIL.n323 8.14595
R643 VTAIL.n357 VTAIL.n356 8.14595
R644 VTAIL.n287 VTAIL.n245 8.14595
R645 VTAIL.n279 VTAIL.n278 8.14595
R646 VTAIL.n593 VTAIL.n560 7.3702
R647 VTAIL.n597 VTAIL.n558 7.3702
R648 VTAIL.n47 VTAIL.n14 7.3702
R649 VTAIL.n51 VTAIL.n12 7.3702
R650 VTAIL.n125 VTAIL.n92 7.3702
R651 VTAIL.n129 VTAIL.n90 7.3702
R652 VTAIL.n203 VTAIL.n170 7.3702
R653 VTAIL.n207 VTAIL.n168 7.3702
R654 VTAIL.n520 VTAIL.n481 7.3702
R655 VTAIL.n516 VTAIL.n483 7.3702
R656 VTAIL.n442 VTAIL.n403 7.3702
R657 VTAIL.n438 VTAIL.n405 7.3702
R658 VTAIL.n364 VTAIL.n325 7.3702
R659 VTAIL.n360 VTAIL.n327 7.3702
R660 VTAIL.n286 VTAIL.n247 7.3702
R661 VTAIL.n282 VTAIL.n249 7.3702
R662 VTAIL.n594 VTAIL.n593 6.59444
R663 VTAIL.n594 VTAIL.n558 6.59444
R664 VTAIL.n48 VTAIL.n47 6.59444
R665 VTAIL.n48 VTAIL.n12 6.59444
R666 VTAIL.n126 VTAIL.n125 6.59444
R667 VTAIL.n126 VTAIL.n90 6.59444
R668 VTAIL.n204 VTAIL.n203 6.59444
R669 VTAIL.n204 VTAIL.n168 6.59444
R670 VTAIL.n517 VTAIL.n481 6.59444
R671 VTAIL.n517 VTAIL.n516 6.59444
R672 VTAIL.n439 VTAIL.n403 6.59444
R673 VTAIL.n439 VTAIL.n438 6.59444
R674 VTAIL.n361 VTAIL.n325 6.59444
R675 VTAIL.n361 VTAIL.n360 6.59444
R676 VTAIL.n283 VTAIL.n247 6.59444
R677 VTAIL.n283 VTAIL.n282 6.59444
R678 VTAIL.n590 VTAIL.n560 5.81868
R679 VTAIL.n598 VTAIL.n597 5.81868
R680 VTAIL.n44 VTAIL.n14 5.81868
R681 VTAIL.n52 VTAIL.n51 5.81868
R682 VTAIL.n122 VTAIL.n92 5.81868
R683 VTAIL.n130 VTAIL.n129 5.81868
R684 VTAIL.n200 VTAIL.n170 5.81868
R685 VTAIL.n208 VTAIL.n207 5.81868
R686 VTAIL.n521 VTAIL.n520 5.81868
R687 VTAIL.n513 VTAIL.n483 5.81868
R688 VTAIL.n443 VTAIL.n442 5.81868
R689 VTAIL.n435 VTAIL.n405 5.81868
R690 VTAIL.n365 VTAIL.n364 5.81868
R691 VTAIL.n357 VTAIL.n327 5.81868
R692 VTAIL.n287 VTAIL.n286 5.81868
R693 VTAIL.n279 VTAIL.n249 5.81868
R694 VTAIL.n589 VTAIL.n562 5.04292
R695 VTAIL.n601 VTAIL.n556 5.04292
R696 VTAIL.n43 VTAIL.n16 5.04292
R697 VTAIL.n55 VTAIL.n10 5.04292
R698 VTAIL.n121 VTAIL.n94 5.04292
R699 VTAIL.n133 VTAIL.n88 5.04292
R700 VTAIL.n199 VTAIL.n172 5.04292
R701 VTAIL.n211 VTAIL.n166 5.04292
R702 VTAIL.n524 VTAIL.n479 5.04292
R703 VTAIL.n512 VTAIL.n485 5.04292
R704 VTAIL.n446 VTAIL.n401 5.04292
R705 VTAIL.n434 VTAIL.n407 5.04292
R706 VTAIL.n368 VTAIL.n323 5.04292
R707 VTAIL.n356 VTAIL.n329 5.04292
R708 VTAIL.n290 VTAIL.n245 5.04292
R709 VTAIL.n278 VTAIL.n251 5.04292
R710 VTAIL.n572 VTAIL.n571 4.38563
R711 VTAIL.n26 VTAIL.n25 4.38563
R712 VTAIL.n104 VTAIL.n103 4.38563
R713 VTAIL.n182 VTAIL.n181 4.38563
R714 VTAIL.n495 VTAIL.n494 4.38563
R715 VTAIL.n417 VTAIL.n416 4.38563
R716 VTAIL.n339 VTAIL.n338 4.38563
R717 VTAIL.n261 VTAIL.n260 4.38563
R718 VTAIL.n586 VTAIL.n585 4.26717
R719 VTAIL.n602 VTAIL.n554 4.26717
R720 VTAIL.n40 VTAIL.n39 4.26717
R721 VTAIL.n56 VTAIL.n8 4.26717
R722 VTAIL.n118 VTAIL.n117 4.26717
R723 VTAIL.n134 VTAIL.n86 4.26717
R724 VTAIL.n196 VTAIL.n195 4.26717
R725 VTAIL.n212 VTAIL.n164 4.26717
R726 VTAIL.n525 VTAIL.n477 4.26717
R727 VTAIL.n509 VTAIL.n508 4.26717
R728 VTAIL.n447 VTAIL.n399 4.26717
R729 VTAIL.n431 VTAIL.n430 4.26717
R730 VTAIL.n369 VTAIL.n321 4.26717
R731 VTAIL.n353 VTAIL.n352 4.26717
R732 VTAIL.n291 VTAIL.n243 4.26717
R733 VTAIL.n275 VTAIL.n274 4.26717
R734 VTAIL.n582 VTAIL.n564 3.49141
R735 VTAIL.n606 VTAIL.n605 3.49141
R736 VTAIL.n36 VTAIL.n18 3.49141
R737 VTAIL.n60 VTAIL.n59 3.49141
R738 VTAIL.n114 VTAIL.n96 3.49141
R739 VTAIL.n138 VTAIL.n137 3.49141
R740 VTAIL.n192 VTAIL.n174 3.49141
R741 VTAIL.n216 VTAIL.n215 3.49141
R742 VTAIL.n529 VTAIL.n528 3.49141
R743 VTAIL.n505 VTAIL.n487 3.49141
R744 VTAIL.n451 VTAIL.n450 3.49141
R745 VTAIL.n427 VTAIL.n409 3.49141
R746 VTAIL.n373 VTAIL.n372 3.49141
R747 VTAIL.n349 VTAIL.n331 3.49141
R748 VTAIL.n295 VTAIL.n294 3.49141
R749 VTAIL.n271 VTAIL.n253 3.49141
R750 VTAIL.n581 VTAIL.n566 2.71565
R751 VTAIL.n609 VTAIL.n552 2.71565
R752 VTAIL.n35 VTAIL.n20 2.71565
R753 VTAIL.n63 VTAIL.n6 2.71565
R754 VTAIL.n113 VTAIL.n98 2.71565
R755 VTAIL.n141 VTAIL.n84 2.71565
R756 VTAIL.n191 VTAIL.n176 2.71565
R757 VTAIL.n219 VTAIL.n162 2.71565
R758 VTAIL.n532 VTAIL.n475 2.71565
R759 VTAIL.n504 VTAIL.n489 2.71565
R760 VTAIL.n454 VTAIL.n397 2.71565
R761 VTAIL.n426 VTAIL.n411 2.71565
R762 VTAIL.n376 VTAIL.n319 2.71565
R763 VTAIL.n348 VTAIL.n333 2.71565
R764 VTAIL.n298 VTAIL.n241 2.71565
R765 VTAIL.n270 VTAIL.n255 2.71565
R766 VTAIL.n389 VTAIL.n311 2.01774
R767 VTAIL.n545 VTAIL.n467 2.01774
R768 VTAIL.n233 VTAIL.n155 2.01774
R769 VTAIL.n578 VTAIL.n577 1.93989
R770 VTAIL.n610 VTAIL.n550 1.93989
R771 VTAIL.n32 VTAIL.n31 1.93989
R772 VTAIL.n64 VTAIL.n4 1.93989
R773 VTAIL.n110 VTAIL.n109 1.93989
R774 VTAIL.n142 VTAIL.n82 1.93989
R775 VTAIL.n188 VTAIL.n187 1.93989
R776 VTAIL.n220 VTAIL.n160 1.93989
R777 VTAIL.n533 VTAIL.n473 1.93989
R778 VTAIL.n501 VTAIL.n500 1.93989
R779 VTAIL.n455 VTAIL.n395 1.93989
R780 VTAIL.n423 VTAIL.n422 1.93989
R781 VTAIL.n377 VTAIL.n317 1.93989
R782 VTAIL.n345 VTAIL.n344 1.93989
R783 VTAIL.n299 VTAIL.n239 1.93989
R784 VTAIL.n267 VTAIL.n266 1.93989
R785 VTAIL.n574 VTAIL.n568 1.16414
R786 VTAIL.n615 VTAIL.n613 1.16414
R787 VTAIL.n622 VTAIL.n546 1.16414
R788 VTAIL.n28 VTAIL.n22 1.16414
R789 VTAIL.n69 VTAIL.n67 1.16414
R790 VTAIL.n76 VTAIL.n0 1.16414
R791 VTAIL.n106 VTAIL.n100 1.16414
R792 VTAIL.n147 VTAIL.n145 1.16414
R793 VTAIL.n154 VTAIL.n78 1.16414
R794 VTAIL.n184 VTAIL.n178 1.16414
R795 VTAIL.n225 VTAIL.n223 1.16414
R796 VTAIL.n232 VTAIL.n156 1.16414
R797 VTAIL.n544 VTAIL.n468 1.16414
R798 VTAIL.n537 VTAIL.n536 1.16414
R799 VTAIL.n497 VTAIL.n491 1.16414
R800 VTAIL.n466 VTAIL.n390 1.16414
R801 VTAIL.n459 VTAIL.n458 1.16414
R802 VTAIL.n419 VTAIL.n413 1.16414
R803 VTAIL.n388 VTAIL.n312 1.16414
R804 VTAIL.n381 VTAIL.n380 1.16414
R805 VTAIL.n341 VTAIL.n335 1.16414
R806 VTAIL.n310 VTAIL.n234 1.16414
R807 VTAIL.n303 VTAIL.n302 1.16414
R808 VTAIL.n263 VTAIL.n257 1.16414
R809 VTAIL VTAIL.n77 1.06731
R810 VTAIL VTAIL.n623 0.950931
R811 VTAIL.n467 VTAIL.n389 0.470328
R812 VTAIL.n155 VTAIL.n77 0.470328
R813 VTAIL.n573 VTAIL.n570 0.388379
R814 VTAIL.n614 VTAIL.n548 0.388379
R815 VTAIL.n620 VTAIL.n619 0.388379
R816 VTAIL.n27 VTAIL.n24 0.388379
R817 VTAIL.n68 VTAIL.n2 0.388379
R818 VTAIL.n74 VTAIL.n73 0.388379
R819 VTAIL.n105 VTAIL.n102 0.388379
R820 VTAIL.n146 VTAIL.n80 0.388379
R821 VTAIL.n152 VTAIL.n151 0.388379
R822 VTAIL.n183 VTAIL.n180 0.388379
R823 VTAIL.n224 VTAIL.n158 0.388379
R824 VTAIL.n230 VTAIL.n229 0.388379
R825 VTAIL.n542 VTAIL.n541 0.388379
R826 VTAIL.n472 VTAIL.n470 0.388379
R827 VTAIL.n496 VTAIL.n493 0.388379
R828 VTAIL.n464 VTAIL.n463 0.388379
R829 VTAIL.n394 VTAIL.n392 0.388379
R830 VTAIL.n418 VTAIL.n415 0.388379
R831 VTAIL.n386 VTAIL.n385 0.388379
R832 VTAIL.n316 VTAIL.n314 0.388379
R833 VTAIL.n340 VTAIL.n337 0.388379
R834 VTAIL.n308 VTAIL.n307 0.388379
R835 VTAIL.n238 VTAIL.n236 0.388379
R836 VTAIL.n262 VTAIL.n259 0.388379
R837 VTAIL.n572 VTAIL.n567 0.155672
R838 VTAIL.n579 VTAIL.n567 0.155672
R839 VTAIL.n580 VTAIL.n579 0.155672
R840 VTAIL.n580 VTAIL.n563 0.155672
R841 VTAIL.n587 VTAIL.n563 0.155672
R842 VTAIL.n588 VTAIL.n587 0.155672
R843 VTAIL.n588 VTAIL.n559 0.155672
R844 VTAIL.n595 VTAIL.n559 0.155672
R845 VTAIL.n596 VTAIL.n595 0.155672
R846 VTAIL.n596 VTAIL.n555 0.155672
R847 VTAIL.n603 VTAIL.n555 0.155672
R848 VTAIL.n604 VTAIL.n603 0.155672
R849 VTAIL.n604 VTAIL.n551 0.155672
R850 VTAIL.n611 VTAIL.n551 0.155672
R851 VTAIL.n612 VTAIL.n611 0.155672
R852 VTAIL.n612 VTAIL.n547 0.155672
R853 VTAIL.n621 VTAIL.n547 0.155672
R854 VTAIL.n26 VTAIL.n21 0.155672
R855 VTAIL.n33 VTAIL.n21 0.155672
R856 VTAIL.n34 VTAIL.n33 0.155672
R857 VTAIL.n34 VTAIL.n17 0.155672
R858 VTAIL.n41 VTAIL.n17 0.155672