* NGSPICE file created from opamp_sample_0002.ext - technology: sky130A

.subckt opamp_sample_0002 GND VOUT VDD VN VP CS_BIAS DIFFPAIR_BIAS
X0 VDD.t194 a_n7677_8299.t20 VOUT.t54 VDD.t127 sky130_fd_pr__pfet_01v8 ad=2.73 pd=14.78 as=1.155 ps=7.33 w=7 l=1
X1 a_n2686_8422.t19 a_n2686_12778.t32 a_n7677_8299.t1 VDD.t4 sky130_fd_pr__pfet_01v8 ad=0.99 pd=6.33 as=0.99 ps=6.33 w=6 l=1
X2 VOUT.t53 a_n7677_8299.t21 VDD.t193 VDD.t137 sky130_fd_pr__pfet_01v8 ad=1.155 pd=7.33 as=1.155 ps=7.33 w=7 l=1
X3 GND.t158 GND.t156 GND.t157 GND.t79 sky130_fd_pr__nfet_01v8 ad=2.34 pd=12.78 as=0 ps=0 w=6 l=2
X4 CS_BIAS.t31 CS_BIAS.t30 GND.t41 GND.t40 sky130_fd_pr__nfet_01v8 ad=0.99 pd=6.33 as=0.99 ps=6.33 w=6 l=2
X5 GND.t165 CS_BIAS.t32 VOUT.t24 GND.t0 sky130_fd_pr__nfet_01v8 ad=2.34 pd=12.78 as=0.99 ps=6.33 w=6 l=2
X6 a_n2686_8422.t7 a_n2686_12778.t33 VDD.t29 VDD.t28 sky130_fd_pr__pfet_01v8 ad=2.34 pd=12.78 as=0.99 ps=6.33 w=6 l=1
X7 GND.t155 GND.t153 GND.t154 GND.t103 sky130_fd_pr__nfet_01v8 ad=2.34 pd=12.78 as=0 ps=0 w=6 l=2
X8 VOUT.t10 CS_BIAS.t33 GND.t50 GND.t42 sky130_fd_pr__nfet_01v8 ad=0.99 pd=6.33 as=0.99 ps=6.33 w=6 l=2
X9 VDD.t192 a_n7677_8299.t22 VOUT.t52 VDD.t154 sky130_fd_pr__pfet_01v8 ad=2.73 pd=14.78 as=1.155 ps=7.33 w=7 l=1
X10 GND.t163 CS_BIAS.t34 VOUT.t22 GND.t48 sky130_fd_pr__nfet_01v8 ad=0.99 pd=6.33 as=0.99 ps=6.33 w=6 l=2
X11 GND.t152 GND.t150 GND.t151 GND.t79 sky130_fd_pr__nfet_01v8 ad=2.34 pd=12.78 as=0 ps=0 w=6 l=2
X12 VDD.t114 VDD.t112 VDD.t113 VDD.t71 sky130_fd_pr__pfet_01v8 ad=2.73 pd=14.78 as=0 ps=0 w=7 l=1
X13 GND.t149 GND.t147 VN.t4 GND.t148 sky130_fd_pr__nfet_01v8 ad=0.165 pd=1.33 as=0.39 ps=2.78 w=1 l=0.5
X14 GND.t146 GND.t144 GND.t145 GND.t75 sky130_fd_pr__nfet_01v8 ad=2.34 pd=12.78 as=0 ps=0 w=6 l=2
X15 a_n2511_10556.t11 a_n2686_12778.t19 a_n2686_12778.t20 VDD.t8 sky130_fd_pr__pfet_01v8 ad=0.99 pd=6.33 as=0.99 ps=6.33 w=6 l=1
X16 a_n7677_8299.t19 a_n2686_12778.t34 a_n2686_8422.t18 VDD.t36 sky130_fd_pr__pfet_01v8 ad=0.99 pd=6.33 as=0.99 ps=6.33 w=6 l=1
X17 VDD.t111 VDD.t109 VDD.t110 VDD.t87 sky130_fd_pr__pfet_01v8 ad=2.34 pd=12.78 as=0 ps=0 w=6 l=1
X18 GND.t64 CS_BIAS.t28 CS_BIAS.t29 GND.t9 sky130_fd_pr__nfet_01v8 ad=0.99 pd=6.33 as=0.99 ps=6.33 w=6 l=2
X19 VDD.t191 a_n7677_8299.t23 VOUT.t61 VDD.t119 sky130_fd_pr__pfet_01v8 ad=1.155 pd=7.33 as=1.155 ps=7.33 w=7 l=1
X20 VDD.t190 a_n7677_8299.t24 VOUT.t60 VDD.t143 sky130_fd_pr__pfet_01v8 ad=1.155 pd=7.33 as=1.155 ps=7.33 w=7 l=1
X21 VOUT.t19 CS_BIAS.t35 GND.t66 GND.t28 sky130_fd_pr__nfet_01v8 ad=0.99 pd=6.33 as=0.99 ps=6.33 w=6 l=2
X22 VOUT.t59 a_n7677_8299.t25 VDD.t189 VDD.t156 sky130_fd_pr__pfet_01v8 ad=1.155 pd=7.33 as=1.155 ps=7.33 w=7 l=1
X23 VDD.t188 a_n7677_8299.t26 VOUT.t58 VDD.t160 sky130_fd_pr__pfet_01v8 ad=1.155 pd=7.33 as=1.155 ps=7.33 w=7 l=1
X24 a_n7677_8299.t0 VN.t5 a_n1455_n3928.t15 GND.t6 sky130_fd_pr__nfet_01v8 ad=1.155 pd=7.33 as=1.155 ps=7.33 w=7 l=1
X25 GND.t143 GND.t141 VP.t4 GND.t142 sky130_fd_pr__nfet_01v8 ad=0.165 pd=1.33 as=0.165 ps=1.33 w=1 l=0.5
X26 GND.t170 CS_BIAS.t26 CS_BIAS.t27 GND.t2 sky130_fd_pr__nfet_01v8 ad=0.99 pd=6.33 as=0.99 ps=6.33 w=6 l=2
X27 VDD.t187 a_n7677_8299.t27 VOUT.t76 VDD.t158 sky130_fd_pr__pfet_01v8 ad=1.155 pd=7.33 as=1.155 ps=7.33 w=7 l=1
X28 GND.t59 CS_BIAS.t36 VOUT.t16 GND.t32 sky130_fd_pr__nfet_01v8 ad=0.99 pd=6.33 as=0.99 ps=6.33 w=6 l=2
X29 GND.t10 CS_BIAS.t37 VOUT.t2 GND.t9 sky130_fd_pr__nfet_01v8 ad=0.99 pd=6.33 as=0.99 ps=6.33 w=6 l=2
X30 VOUT.t75 a_n7677_8299.t28 VDD.t186 VDD.t156 sky130_fd_pr__pfet_01v8 ad=1.155 pd=7.33 as=1.155 ps=7.33 w=7 l=1
X31 VOUT.t92 a_n2686_8422.t20 sky130_fd_pr__cap_mim_m3_1 l=12 w=12
X32 VDD.t108 VDD.t106 VDD.t107 VDD.t63 sky130_fd_pr__pfet_01v8 ad=2.73 pd=14.78 as=0 ps=0 w=7 l=1
X33 a_n7677_8299.t5 a_n2686_12778.t35 a_n2686_8422.t17 VDD.t7 sky130_fd_pr__pfet_01v8 ad=0.99 pd=6.33 as=2.34 ps=12.78 w=6 l=1
X34 VDD.t105 VDD.t102 VDD.t104 VDD.t103 sky130_fd_pr__pfet_01v8 ad=2.34 pd=12.78 as=0 ps=0 w=6 l=1
X35 GND.t58 CS_BIAS.t38 VOUT.t15 GND.t57 sky130_fd_pr__nfet_01v8 ad=2.34 pd=12.78 as=0.99 ps=6.33 w=6 l=2
X36 VDD.t196 a_n2686_12778.t36 a_n2511_10556.t19 VDD.t195 sky130_fd_pr__pfet_01v8 ad=0.99 pd=6.33 as=2.34 ps=12.78 w=6 l=1
X37 VDD.t185 a_n7677_8299.t29 VOUT.t74 VDD.t135 sky130_fd_pr__pfet_01v8 ad=1.155 pd=7.33 as=1.155 ps=7.33 w=7 l=1
X38 GND.t140 GND.t138 GND.t139 GND.t83 sky130_fd_pr__nfet_01v8 ad=2.34 pd=12.78 as=0 ps=0 w=6 l=2
X39 VOUT.t73 a_n7677_8299.t30 VDD.t184 VDD.t145 sky130_fd_pr__pfet_01v8 ad=1.155 pd=7.33 as=2.73 ps=14.78 w=7 l=1
X40 a_n2686_8422.t16 a_n2686_12778.t37 a_n7677_8299.t10 VDD.t33 sky130_fd_pr__pfet_01v8 ad=2.34 pd=12.78 as=0.99 ps=6.33 w=6 l=1
X41 a_n1455_n3928.t6 DIFFPAIR_BIAS.t8 GND.t35 GND.t34 sky130_fd_pr__nfet_01v8 ad=2.73 pd=14.78 as=2.73 ps=14.78 w=7 l=2
X42 CS_BIAS.t25 CS_BIAS.t24 GND.t47 GND.t46 sky130_fd_pr__nfet_01v8 ad=0.99 pd=6.33 as=0.99 ps=6.33 w=6 l=2
X43 a_n2511_10556.t10 a_n2686_12778.t25 a_n2686_12778.t26 VDD.t36 sky130_fd_pr__pfet_01v8 ad=0.99 pd=6.33 as=0.99 ps=6.33 w=6 l=1
X44 GND.t137 GND.t135 GND.t136 GND.t75 sky130_fd_pr__nfet_01v8 ad=2.34 pd=12.78 as=0 ps=0 w=6 l=2
X45 VDD.t183 a_n7677_8299.t31 VOUT.t49 VDD.t149 sky130_fd_pr__pfet_01v8 ad=1.155 pd=7.33 as=1.155 ps=7.33 w=7 l=1
X46 DIFFPAIR_BIAS.t7 DIFFPAIR_BIAS.t6 GND.t174 GND.t173 sky130_fd_pr__nfet_01v8 ad=2.73 pd=14.78 as=2.73 ps=14.78 w=7 l=2
X47 GND.t134 GND.t131 GND.t133 GND.t132 sky130_fd_pr__nfet_01v8 ad=2.73 pd=14.78 as=0 ps=0 w=7 l=2
X48 VDD.t10 a_n2686_12778.t38 a_n2511_10556.t18 VDD.t9 sky130_fd_pr__pfet_01v8 ad=0.99 pd=6.33 as=0.99 ps=6.33 w=6 l=1
X49 VDD.t17 a_n2686_12778.t39 a_n2686_8422.t6 VDD.t16 sky130_fd_pr__pfet_01v8 ad=0.99 pd=6.33 as=2.34 ps=12.78 w=6 l=1
X50 a_n7677_8299.t6 a_n2686_12778.t40 a_n2686_8422.t15 VDD.t0 sky130_fd_pr__pfet_01v8 ad=0.99 pd=6.33 as=2.34 ps=12.78 w=6 l=1
X51 GND.t130 GND.t128 GND.t129 GND.t90 sky130_fd_pr__nfet_01v8 ad=2.73 pd=14.78 as=0 ps=0 w=7 l=1
X52 GND.t127 GND.t124 GND.t126 GND.t125 sky130_fd_pr__nfet_01v8 ad=2.73 pd=14.78 as=0 ps=0 w=7 l=2
X53 GND.t53 CS_BIAS.t39 VOUT.t12 GND.t0 sky130_fd_pr__nfet_01v8 ad=2.34 pd=12.78 as=0.99 ps=6.33 w=6 l=2
X54 a_n1455_n3928.t0 VP.t5 a_n2686_12778.t0 GND.t13 sky130_fd_pr__nfet_01v8 ad=1.155 pd=7.33 as=1.155 ps=7.33 w=7 l=1
X55 GND.t123 GND.t121 GND.t122 GND.t103 sky130_fd_pr__nfet_01v8 ad=2.34 pd=12.78 as=0 ps=0 w=6 l=2
X56 VN.t3 GND.t118 GND.t120 GND.t119 sky130_fd_pr__nfet_01v8 ad=0.165 pd=1.33 as=0.165 ps=1.33 w=1 l=0.5
X57 DIFFPAIR_BIAS.t5 DIFFPAIR_BIAS.t4 GND.t12 GND.t11 sky130_fd_pr__nfet_01v8 ad=2.73 pd=14.78 as=2.73 ps=14.78 w=7 l=2
X58 VOUT.t48 a_n7677_8299.t32 VDD.t182 VDD.t125 sky130_fd_pr__pfet_01v8 ad=1.155 pd=7.33 as=2.73 ps=14.78 w=7 l=1
X59 GND.t117 GND.t115 VP.t3 GND.t116 sky130_fd_pr__nfet_01v8 ad=0.39 pd=2.78 as=0.165 ps=1.33 w=1 l=0.5
X60 a_n2686_8422.t14 a_n2686_12778.t41 a_n7677_8299.t16 VDD.t197 sky130_fd_pr__pfet_01v8 ad=0.99 pd=6.33 as=0.99 ps=6.33 w=6 l=1
X61 VDD.t35 a_n2686_12778.t42 a_n2686_8422.t5 VDD.t34 sky130_fd_pr__pfet_01v8 ad=0.99 pd=6.33 as=2.34 ps=12.78 w=6 l=1
X62 VOUT.t47 a_n7677_8299.t33 VDD.t181 VDD.t139 sky130_fd_pr__pfet_01v8 ad=1.155 pd=7.33 as=1.155 ps=7.33 w=7 l=1
X63 CS_BIAS.t23 CS_BIAS.t22 GND.t178 GND.t61 sky130_fd_pr__nfet_01v8 ad=0.99 pd=6.33 as=0.99 ps=6.33 w=6 l=2
X64 a_n1455_n3928.t2 DIFFPAIR_BIAS.t9 GND.t17 GND.t16 sky130_fd_pr__nfet_01v8 ad=2.73 pd=14.78 as=2.73 ps=14.78 w=7 l=2
X65 VDD.t101 VDD.t99 VDD.t100 VDD.t44 sky130_fd_pr__pfet_01v8 ad=2.73 pd=14.78 as=0 ps=0 w=7 l=1
X66 a_n2686_8422.t13 a_n2686_12778.t43 a_n7677_8299.t11 VDD.t1 sky130_fd_pr__pfet_01v8 ad=0.99 pd=6.33 as=0.99 ps=6.33 w=6 l=1
X67 VDD.t180 a_n7677_8299.t34 VOUT.t46 VDD.t141 sky130_fd_pr__pfet_01v8 ad=1.155 pd=7.33 as=1.155 ps=7.33 w=7 l=1
X68 VDD.t179 a_n7677_8299.t35 VOUT.t80 VDD.t141 sky130_fd_pr__pfet_01v8 ad=1.155 pd=7.33 as=1.155 ps=7.33 w=7 l=1
X69 a_n1455_n3928.t14 VN.t6 a_n7677_8299.t15 GND.t21 sky130_fd_pr__nfet_01v8 ad=2.73 pd=14.78 as=1.155 ps=7.33 w=7 l=1
X70 a_n2686_12778.t5 VP.t6 a_n1455_n3928.t17 GND.t27 sky130_fd_pr__nfet_01v8 ad=1.155 pd=7.33 as=2.73 ps=14.78 w=7 l=1
X71 VDD.t199 a_n2686_12778.t44 a_n2511_10556.t17 VDD.t198 sky130_fd_pr__pfet_01v8 ad=0.99 pd=6.33 as=2.34 ps=12.78 w=6 l=1
X72 a_n2511_10556.t16 a_n2686_12778.t45 VDD.t6 VDD.t5 sky130_fd_pr__pfet_01v8 ad=2.34 pd=12.78 as=0.99 ps=6.33 w=6 l=1
X73 VDD.t98 VDD.t96 VDD.t97 VDD.t67 sky130_fd_pr__pfet_01v8 ad=2.34 pd=12.78 as=0 ps=0 w=6 l=1
X74 GND.t114 GND.t112 VP.t2 GND.t113 sky130_fd_pr__nfet_01v8 ad=0.165 pd=1.33 as=0.39 ps=2.78 w=1 l=0.5
X75 VOUT.t79 a_n7677_8299.t36 VDD.t178 VDD.t137 sky130_fd_pr__pfet_01v8 ad=1.155 pd=7.33 as=1.155 ps=7.33 w=7 l=1
X76 VOUT.t78 a_n7677_8299.t37 VDD.t177 VDD.t132 sky130_fd_pr__pfet_01v8 ad=1.155 pd=7.33 as=1.155 ps=7.33 w=7 l=1
X77 VOUT.t88 CS_BIAS.t40 GND.t172 GND.t40 sky130_fd_pr__nfet_01v8 ad=0.99 pd=6.33 as=0.99 ps=6.33 w=6 l=2
X78 GND.t44 CS_BIAS.t41 VOUT.t9 GND.t9 sky130_fd_pr__nfet_01v8 ad=0.99 pd=6.33 as=0.99 ps=6.33 w=6 l=2
X79 GND.t33 CS_BIAS.t42 VOUT.t7 GND.t32 sky130_fd_pr__nfet_01v8 ad=0.99 pd=6.33 as=0.99 ps=6.33 w=6 l=2
X80 a_n7677_8299.t12 VN.t7 a_n1455_n3928.t13 GND.t63 sky130_fd_pr__nfet_01v8 ad=1.155 pd=7.33 as=2.73 ps=14.78 w=7 l=1
X81 VOUT.t90 CS_BIAS.t43 GND.t177 GND.t38 sky130_fd_pr__nfet_01v8 ad=0.99 pd=6.33 as=2.34 ps=12.78 w=6 l=2
X82 a_n2686_12778.t1 VP.t7 a_n1455_n3928.t3 GND.t20 sky130_fd_pr__nfet_01v8 ad=1.155 pd=7.33 as=1.155 ps=7.33 w=7 l=1
X83 a_n1455_n3928.t12 VN.t8 a_n7677_8299.t13 GND.t60 sky130_fd_pr__nfet_01v8 ad=1.155 pd=7.33 as=1.155 ps=7.33 w=7 l=1
X84 VOUT.t77 a_n7677_8299.t38 VDD.t176 VDD.t130 sky130_fd_pr__pfet_01v8 ad=1.155 pd=7.33 as=1.155 ps=7.33 w=7 l=1
X85 a_n7677_8299.t17 a_n2686_12778.t46 a_n2686_8422.t12 VDD.t8 sky130_fd_pr__pfet_01v8 ad=0.99 pd=6.33 as=0.99 ps=6.33 w=6 l=1
X86 VN.t2 GND.t109 GND.t111 GND.t110 sky130_fd_pr__nfet_01v8 ad=0.165 pd=1.33 as=0.165 ps=1.33 w=1 l=0.5
X87 GND.t49 CS_BIAS.t20 CS_BIAS.t21 GND.t48 sky130_fd_pr__nfet_01v8 ad=0.99 pd=6.33 as=0.99 ps=6.33 w=6 l=2
X88 VOUT.t45 a_n7677_8299.t39 VDD.t175 VDD.t115 sky130_fd_pr__pfet_01v8 ad=1.155 pd=7.33 as=1.155 ps=7.33 w=7 l=1
X89 GND.t108 GND.t106 GND.t107 GND.t68 sky130_fd_pr__nfet_01v8 ad=2.73 pd=14.78 as=0 ps=0 w=7 l=1
X90 VDD.t174 a_n7677_8299.t40 VOUT.t44 VDD.t127 sky130_fd_pr__pfet_01v8 ad=2.73 pd=14.78 as=1.155 ps=7.33 w=7 l=1
X91 VDD.t95 VDD.t93 VDD.t94 VDD.t52 sky130_fd_pr__pfet_01v8 ad=2.34 pd=12.78 as=0 ps=0 w=6 l=1
X92 a_n2511_10556.t9 a_n2686_12778.t11 a_n2686_12778.t12 VDD.t7 sky130_fd_pr__pfet_01v8 ad=0.99 pd=6.33 as=2.34 ps=12.78 w=6 l=1
X93 VOUT.t11 CS_BIAS.t44 GND.t51 GND.t46 sky130_fd_pr__nfet_01v8 ad=0.99 pd=6.33 as=0.99 ps=6.33 w=6 l=2
X94 VDD.t173 a_n7677_8299.t41 VOUT.t43 VDD.t123 sky130_fd_pr__pfet_01v8 ad=1.155 pd=7.33 as=1.155 ps=7.33 w=7 l=1
X95 a_n1455_n3928.t19 VP.t8 a_n2686_12778.t31 GND.t52 sky130_fd_pr__nfet_01v8 ad=2.73 pd=14.78 as=1.155 ps=7.33 w=7 l=1
X96 VOUT.t21 CS_BIAS.t45 GND.t161 GND.t160 sky130_fd_pr__nfet_01v8 ad=0.99 pd=6.33 as=0.99 ps=6.33 w=6 l=2
X97 a_n2686_12778.t22 a_n2686_12778.t21 a_n2511_10556.t8 VDD.t33 sky130_fd_pr__pfet_01v8 ad=2.34 pd=12.78 as=0.99 ps=6.33 w=6 l=1
X98 VDD.t31 a_n2686_12778.t47 a_n2686_8422.t4 VDD.t30 sky130_fd_pr__pfet_01v8 ad=0.99 pd=6.33 as=0.99 ps=6.33 w=6 l=1
X99 VOUT.t42 a_n7677_8299.t42 VDD.t172 VDD.t121 sky130_fd_pr__pfet_01v8 ad=1.155 pd=7.33 as=1.155 ps=7.33 w=7 l=1
X100 VOUT.t31 a_n7677_8299.t43 VDD.t171 VDD.t117 sky130_fd_pr__pfet_01v8 ad=1.155 pd=7.33 as=1.155 ps=7.33 w=7 l=1
X101 a_n2686_12778.t16 a_n2686_12778.t15 a_n2511_10556.t7 VDD.t25 sky130_fd_pr__pfet_01v8 ad=2.34 pd=12.78 as=0.99 ps=6.33 w=6 l=1
X102 GND.t171 CS_BIAS.t18 CS_BIAS.t19 GND.t57 sky130_fd_pr__nfet_01v8 ad=2.34 pd=12.78 as=0.99 ps=6.33 w=6 l=2
X103 GND.t105 GND.t102 GND.t104 GND.t103 sky130_fd_pr__nfet_01v8 ad=2.34 pd=12.78 as=0 ps=0 w=6 l=2
X104 a_n7677_8299.t18 a_n2686_12778.t48 a_n2686_8422.t11 VDD.t32 sky130_fd_pr__pfet_01v8 ad=0.99 pd=6.33 as=0.99 ps=6.33 w=6 l=1
X105 GND.t5 CS_BIAS.t46 VOUT.t1 GND.t4 sky130_fd_pr__nfet_01v8 ad=0.99 pd=6.33 as=0.99 ps=6.33 w=6 l=2
X106 VOUT.t30 a_n7677_8299.t44 VDD.t170 VDD.t115 sky130_fd_pr__pfet_01v8 ad=1.155 pd=7.33 as=1.155 ps=7.33 w=7 l=1
X107 VDD.t169 a_n7677_8299.t45 VOUT.t29 VDD.t158 sky130_fd_pr__pfet_01v8 ad=1.155 pd=7.33 as=1.155 ps=7.33 w=7 l=1
X108 a_n2686_8422.t10 a_n2686_12778.t49 a_n7677_8299.t7 VDD.t25 sky130_fd_pr__pfet_01v8 ad=2.34 pd=12.78 as=0.99 ps=6.33 w=6 l=1
X109 CS_BIAS.t17 CS_BIAS.t16 GND.t168 GND.t38 sky130_fd_pr__nfet_01v8 ad=0.99 pd=6.33 as=2.34 ps=12.78 w=6 l=2
X110 VDD.t92 VDD.t90 VDD.t91 VDD.t40 sky130_fd_pr__pfet_01v8 ad=2.73 pd=14.78 as=0 ps=0 w=7 l=1
X111 VOUT.t93 a_n2686_8422.t20 sky130_fd_pr__cap_mim_m3_1 l=12 w=12
X112 CS_BIAS.t15 CS_BIAS.t14 GND.t56 GND.t24 sky130_fd_pr__nfet_01v8 ad=0.99 pd=6.33 as=2.34 ps=12.78 w=6 l=2
X113 VDD.t168 a_n7677_8299.t46 VOUT.t28 VDD.t149 sky130_fd_pr__pfet_01v8 ad=1.155 pd=7.33 as=1.155 ps=7.33 w=7 l=1
X114 GND.t101 GND.t99 GND.t100 GND.t83 sky130_fd_pr__nfet_01v8 ad=2.34 pd=12.78 as=0 ps=0 w=6 l=2
X115 VDD.t21 a_n2686_12778.t50 a_n2686_8422.t3 VDD.t20 sky130_fd_pr__pfet_01v8 ad=0.99 pd=6.33 as=0.99 ps=6.33 w=6 l=1
X116 GND.t1 CS_BIAS.t12 CS_BIAS.t13 GND.t0 sky130_fd_pr__nfet_01v8 ad=2.34 pd=12.78 as=0.99 ps=6.33 w=6 l=2
X117 VDD.t89 VDD.t86 VDD.t88 VDD.t87 sky130_fd_pr__pfet_01v8 ad=2.34 pd=12.78 as=0 ps=0 w=6 l=1
X118 a_n2511_10556.t6 a_n2686_12778.t27 a_n2686_12778.t28 VDD.t22 sky130_fd_pr__pfet_01v8 ad=0.99 pd=6.33 as=0.99 ps=6.33 w=6 l=1
X119 a_n2686_8422.t2 a_n2686_12778.t51 VDD.t3 VDD.t2 sky130_fd_pr__pfet_01v8 ad=0.99 pd=6.33 as=0.99 ps=6.33 w=6 l=1
X120 VOUT.t26 CS_BIAS.t47 GND.t167 GND.t40 sky130_fd_pr__nfet_01v8 ad=0.99 pd=6.33 as=0.99 ps=6.33 w=6 l=2
X121 VDD.t167 a_n7677_8299.t47 VOUT.t68 VDD.t154 sky130_fd_pr__pfet_01v8 ad=2.73 pd=14.78 as=1.155 ps=7.33 w=7 l=1
X122 a_n2511_10556.t15 a_n2686_12778.t52 VDD.t12 VDD.t11 sky130_fd_pr__pfet_01v8 ad=0.99 pd=6.33 as=0.99 ps=6.33 w=6 l=1
X123 GND.t162 CS_BIAS.t10 CS_BIAS.t11 GND.t4 sky130_fd_pr__nfet_01v8 ad=0.99 pd=6.33 as=0.99 ps=6.33 w=6 l=2
X124 GND.t98 GND.t96 VN.t1 GND.t97 sky130_fd_pr__nfet_01v8 ad=0.39 pd=2.78 as=0.165 ps=1.33 w=1 l=0.5
X125 CS_BIAS.t9 CS_BIAS.t8 GND.t43 GND.t42 sky130_fd_pr__nfet_01v8 ad=0.99 pd=6.33 as=0.99 ps=6.33 w=6 l=2
X126 DIFFPAIR_BIAS.t3 DIFFPAIR_BIAS.t2 GND.t19 GND.t18 sky130_fd_pr__nfet_01v8 ad=2.73 pd=14.78 as=2.73 ps=14.78 w=7 l=2
X127 VOUT.t8 CS_BIAS.t48 GND.t39 GND.t38 sky130_fd_pr__nfet_01v8 ad=0.99 pd=6.33 as=2.34 ps=12.78 w=6 l=2
X128 a_n2511_10556.t14 a_n2686_12778.t53 VDD.t38 VDD.t37 sky130_fd_pr__pfet_01v8 ad=2.34 pd=12.78 as=0.99 ps=6.33 w=6 l=1
X129 VP.t1 GND.t93 GND.t95 GND.t94 sky130_fd_pr__nfet_01v8 ad=0.165 pd=1.33 as=0.165 ps=1.33 w=1 l=0.5
X130 a_n7677_8299.t9 a_n2686_12778.t54 a_n2686_8422.t9 VDD.t22 sky130_fd_pr__pfet_01v8 ad=0.99 pd=6.33 as=0.99 ps=6.33 w=6 l=1
X131 VOUT.t67 a_n7677_8299.t48 VDD.t166 VDD.t139 sky130_fd_pr__pfet_01v8 ad=1.155 pd=7.33 as=1.155 ps=7.33 w=7 l=1
X132 VDD.t85 VDD.t83 VDD.t84 VDD.t71 sky130_fd_pr__pfet_01v8 ad=2.73 pd=14.78 as=0 ps=0 w=7 l=1
X133 VDD.t165 a_n7677_8299.t49 VOUT.t66 VDD.t119 sky130_fd_pr__pfet_01v8 ad=1.155 pd=7.33 as=1.155 ps=7.33 w=7 l=1
X134 GND.t45 CS_BIAS.t6 CS_BIAS.t7 GND.t32 sky130_fd_pr__nfet_01v8 ad=0.99 pd=6.33 as=0.99 ps=6.33 w=6 l=2
X135 VOUT.t65 a_n7677_8299.t50 VDD.t164 VDD.t117 sky130_fd_pr__pfet_01v8 ad=1.155 pd=7.33 as=1.155 ps=7.33 w=7 l=1
X136 VOUT.t17 CS_BIAS.t49 GND.t62 GND.t61 sky130_fd_pr__nfet_01v8 ad=0.99 pd=6.33 as=0.99 ps=6.33 w=6 l=2
X137 VDD.t163 a_n7677_8299.t51 VOUT.t87 VDD.t160 sky130_fd_pr__pfet_01v8 ad=1.155 pd=7.33 as=1.155 ps=7.33 w=7 l=1
X138 VDD.t162 a_n7677_8299.t52 VOUT.t86 VDD.t143 sky130_fd_pr__pfet_01v8 ad=1.155 pd=7.33 as=1.155 ps=7.33 w=7 l=1
X139 a_n2686_12778.t10 a_n2686_12778.t9 a_n2511_10556.t5 VDD.t13 sky130_fd_pr__pfet_01v8 ad=0.99 pd=6.33 as=0.99 ps=6.33 w=6 l=1
X140 GND.t164 CS_BIAS.t50 VOUT.t23 GND.t2 sky130_fd_pr__nfet_01v8 ad=0.99 pd=6.33 as=0.99 ps=6.33 w=6 l=2
X141 VDD.t161 a_n7677_8299.t53 VOUT.t85 VDD.t160 sky130_fd_pr__pfet_01v8 ad=1.155 pd=7.33 as=1.155 ps=7.33 w=7 l=1
X142 VOUT.t18 CS_BIAS.t51 GND.t65 GND.t46 sky130_fd_pr__nfet_01v8 ad=0.99 pd=6.33 as=0.99 ps=6.33 w=6 l=2
X143 VOUT.t27 CS_BIAS.t52 GND.t169 GND.t160 sky130_fd_pr__nfet_01v8 ad=0.99 pd=6.33 as=0.99 ps=6.33 w=6 l=2
X144 VDD.t82 VDD.t80 VDD.t81 VDD.t59 sky130_fd_pr__pfet_01v8 ad=2.34 pd=12.78 as=0 ps=0 w=6 l=1
X145 VOUT.t94 a_n2686_8422.t20 sky130_fd_pr__cap_mim_m3_1 l=12 w=12
X146 VDD.t27 a_n2686_12778.t55 a_n2511_10556.t13 VDD.t26 sky130_fd_pr__pfet_01v8 ad=0.99 pd=6.33 as=0.99 ps=6.33 w=6 l=1
X147 VOUT.t95 a_n2686_8422.t20 sky130_fd_pr__cap_mim_m3_1 l=12 w=12
X148 GND.t54 CS_BIAS.t53 VOUT.t13 GND.t7 sky130_fd_pr__nfet_01v8 ad=0.99 pd=6.33 as=0.99 ps=6.33 w=6 l=2
X149 VDD.t79 VDD.t77 VDD.t78 VDD.t40 sky130_fd_pr__pfet_01v8 ad=2.73 pd=14.78 as=0 ps=0 w=7 l=1
X150 VDD.t159 a_n7677_8299.t54 VOUT.t84 VDD.t158 sky130_fd_pr__pfet_01v8 ad=1.155 pd=7.33 as=1.155 ps=7.33 w=7 l=1
X151 VDD.t76 VDD.t74 VDD.t75 VDD.t63 sky130_fd_pr__pfet_01v8 ad=2.73 pd=14.78 as=0 ps=0 w=7 l=1
X152 GND.t92 GND.t89 GND.t91 GND.t90 sky130_fd_pr__nfet_01v8 ad=2.73 pd=14.78 as=0 ps=0 w=7 l=1
X153 VOUT.t83 a_n7677_8299.t55 VDD.t157 VDD.t156 sky130_fd_pr__pfet_01v8 ad=1.155 pd=7.33 as=1.155 ps=7.33 w=7 l=1
X154 GND.t8 CS_BIAS.t4 CS_BIAS.t5 GND.t7 sky130_fd_pr__nfet_01v8 ad=0.99 pd=6.33 as=0.99 ps=6.33 w=6 l=2
X155 a_n1455_n3928.t7 DIFFPAIR_BIAS.t10 GND.t37 GND.t36 sky130_fd_pr__nfet_01v8 ad=2.73 pd=14.78 as=2.73 ps=14.78 w=7 l=2
X156 VOUT.t14 CS_BIAS.t54 GND.t55 GND.t24 sky130_fd_pr__nfet_01v8 ad=0.99 pd=6.33 as=2.34 ps=12.78 w=6 l=2
X157 GND.t31 CS_BIAS.t55 VOUT.t6 GND.t4 sky130_fd_pr__nfet_01v8 ad=0.99 pd=6.33 as=0.99 ps=6.33 w=6 l=2
X158 a_n2511_10556.t12 a_n2686_12778.t56 VDD.t15 VDD.t14 sky130_fd_pr__pfet_01v8 ad=0.99 pd=6.33 as=0.99 ps=6.33 w=6 l=1
X159 VDD.t155 a_n7677_8299.t56 VOUT.t64 VDD.t154 sky130_fd_pr__pfet_01v8 ad=2.73 pd=14.78 as=1.155 ps=7.33 w=7 l=1
X160 CS_BIAS.t3 CS_BIAS.t2 GND.t176 GND.t160 sky130_fd_pr__nfet_01v8 ad=0.99 pd=6.33 as=0.99 ps=6.33 w=6 l=2
X161 VDD.t153 a_n7677_8299.t57 VOUT.t63 VDD.t135 sky130_fd_pr__pfet_01v8 ad=1.155 pd=7.33 as=1.155 ps=7.33 w=7 l=1
X162 a_n1455_n3928.t11 VN.t9 a_n7677_8299.t14 GND.t13 sky130_fd_pr__nfet_01v8 ad=1.155 pd=7.33 as=1.155 ps=7.33 w=7 l=1
X163 VOUT.t62 a_n7677_8299.t58 VDD.t152 VDD.t145 sky130_fd_pr__pfet_01v8 ad=1.155 pd=7.33 as=2.73 ps=14.78 w=7 l=1
X164 a_n2686_12778.t3 VP.t9 a_n1455_n3928.t5 GND.t6 sky130_fd_pr__nfet_01v8 ad=1.155 pd=7.33 as=1.155 ps=7.33 w=7 l=1
X165 VOUT.t57 a_n7677_8299.t59 VDD.t151 VDD.t130 sky130_fd_pr__pfet_01v8 ad=1.155 pd=7.33 as=1.155 ps=7.33 w=7 l=1
X166 GND.t88 GND.t86 VN.t0 GND.t87 sky130_fd_pr__nfet_01v8 ad=0.165 pd=1.33 as=0.165 ps=1.33 w=1 l=0.5
X167 GND.t85 GND.t82 GND.t84 GND.t83 sky130_fd_pr__nfet_01v8 ad=2.34 pd=12.78 as=0 ps=0 w=6 l=2
X168 VDD.t73 VDD.t70 VDD.t72 VDD.t71 sky130_fd_pr__pfet_01v8 ad=2.73 pd=14.78 as=0 ps=0 w=7 l=1
X169 VDD.t150 a_n7677_8299.t60 VOUT.t56 VDD.t149 sky130_fd_pr__pfet_01v8 ad=1.155 pd=7.33 as=1.155 ps=7.33 w=7 l=1
X170 VDD.t69 VDD.t66 VDD.t68 VDD.t67 sky130_fd_pr__pfet_01v8 ad=2.34 pd=12.78 as=0 ps=0 w=6 l=1
X171 VOUT.t96 a_n2686_8422.t20 sky130_fd_pr__cap_mim_m3_1 l=12 w=12
X172 VDD.t65 VDD.t62 VDD.t64 VDD.t63 sky130_fd_pr__pfet_01v8 ad=2.73 pd=14.78 as=0 ps=0 w=7 l=1
X173 VOUT.t55 a_n7677_8299.t61 VDD.t148 VDD.t121 sky130_fd_pr__pfet_01v8 ad=1.155 pd=7.33 as=1.155 ps=7.33 w=7 l=1
X174 a_n2511_10556.t4 a_n2686_12778.t23 a_n2686_12778.t24 VDD.t0 sky130_fd_pr__pfet_01v8 ad=0.99 pd=6.33 as=2.34 ps=12.78 w=6 l=1
X175 CS_BIAS.t1 CS_BIAS.t0 GND.t30 GND.t28 sky130_fd_pr__nfet_01v8 ad=0.99 pd=6.33 as=0.99 ps=6.33 w=6 l=2
X176 a_n7677_8299.t3 VN.t10 a_n1455_n3928.t10 GND.t27 sky130_fd_pr__nfet_01v8 ad=1.155 pd=7.33 as=2.73 ps=14.78 w=7 l=1
X177 VDD.t61 VDD.t58 VDD.t60 VDD.t59 sky130_fd_pr__pfet_01v8 ad=2.34 pd=12.78 as=0 ps=0 w=6 l=1
X178 VOUT.t36 a_n7677_8299.t62 VDD.t147 VDD.t125 sky130_fd_pr__pfet_01v8 ad=1.155 pd=7.33 as=2.73 ps=14.78 w=7 l=1
X179 VOUT.t35 a_n7677_8299.t63 VDD.t146 VDD.t145 sky130_fd_pr__pfet_01v8 ad=1.155 pd=7.33 as=2.73 ps=14.78 w=7 l=1
X180 VDD.t144 a_n7677_8299.t64 VOUT.t34 VDD.t143 sky130_fd_pr__pfet_01v8 ad=1.155 pd=7.33 as=1.155 ps=7.33 w=7 l=1
X181 VOUT.t25 CS_BIAS.t56 GND.t166 GND.t61 sky130_fd_pr__nfet_01v8 ad=0.99 pd=6.33 as=0.99 ps=6.33 w=6 l=2
X182 a_n2686_12778.t6 VP.t10 a_n1455_n3928.t18 GND.t63 sky130_fd_pr__nfet_01v8 ad=1.155 pd=7.33 as=2.73 ps=14.78 w=7 l=1
X183 VDD.t57 VDD.t55 VDD.t56 VDD.t44 sky130_fd_pr__pfet_01v8 ad=2.73 pd=14.78 as=0 ps=0 w=7 l=1
X184 VDD.t142 a_n7677_8299.t65 VOUT.t33 VDD.t141 sky130_fd_pr__pfet_01v8 ad=1.155 pd=7.33 as=1.155 ps=7.33 w=7 l=1
X185 a_n2511_10556.t3 a_n2686_12778.t29 a_n2686_12778.t30 VDD.t32 sky130_fd_pr__pfet_01v8 ad=0.99 pd=6.33 as=0.99 ps=6.33 w=6 l=1
X186 a_n1455_n3928.t16 VP.t11 a_n2686_12778.t4 GND.t60 sky130_fd_pr__nfet_01v8 ad=1.155 pd=7.33 as=1.155 ps=7.33 w=7 l=1
X187 GND.t3 CS_BIAS.t57 VOUT.t0 GND.t2 sky130_fd_pr__nfet_01v8 ad=0.99 pd=6.33 as=0.99 ps=6.33 w=6 l=2
X188 VOUT.t32 a_n7677_8299.t66 VDD.t140 VDD.t139 sky130_fd_pr__pfet_01v8 ad=1.155 pd=7.33 as=1.155 ps=7.33 w=7 l=1
X189 a_n2686_8422.t8 a_n2686_12778.t57 a_n7677_8299.t4 VDD.t13 sky130_fd_pr__pfet_01v8 ad=0.99 pd=6.33 as=0.99 ps=6.33 w=6 l=1
X190 VOUT.t51 a_n7677_8299.t67 VDD.t138 VDD.t137 sky130_fd_pr__pfet_01v8 ad=1.155 pd=7.33 as=1.155 ps=7.33 w=7 l=1
X191 a_n1455_n3928.t1 DIFFPAIR_BIAS.t11 GND.t15 GND.t14 sky130_fd_pr__nfet_01v8 ad=2.73 pd=14.78 as=2.73 ps=14.78 w=7 l=2
X192 VDD.t136 a_n7677_8299.t68 VOUT.t50 VDD.t135 sky130_fd_pr__pfet_01v8 ad=1.155 pd=7.33 as=1.155 ps=7.33 w=7 l=1
X193 GND.t26 CS_BIAS.t58 VOUT.t4 GND.t7 sky130_fd_pr__nfet_01v8 ad=0.99 pd=6.33 as=0.99 ps=6.33 w=6 l=2
X194 a_n2686_12778.t14 a_n2686_12778.t13 a_n2511_10556.t2 VDD.t197 sky130_fd_pr__pfet_01v8 ad=0.99 pd=6.33 as=0.99 ps=6.33 w=6 l=1
X195 VOUT.t72 a_n7677_8299.t69 VDD.t134 VDD.t132 sky130_fd_pr__pfet_01v8 ad=1.155 pd=7.33 as=1.155 ps=7.33 w=7 l=1
X196 VOUT.t97 a_n2686_8422.t20 sky130_fd_pr__cap_mim_m3_1 l=12 w=12
X197 VOUT.t71 a_n7677_8299.t70 VDD.t133 VDD.t132 sky130_fd_pr__pfet_01v8 ad=1.155 pd=7.33 as=1.155 ps=7.33 w=7 l=1
X198 VOUT.t91 CS_BIAS.t59 GND.t179 GND.t42 sky130_fd_pr__nfet_01v8 ad=0.99 pd=6.33 as=0.99 ps=6.33 w=6 l=2
X199 VOUT.t3 CS_BIAS.t60 GND.t25 GND.t24 sky130_fd_pr__nfet_01v8 ad=0.99 pd=6.33 as=2.34 ps=12.78 w=6 l=2
X200 VOUT.t39 a_n7677_8299.t71 VDD.t131 VDD.t130 sky130_fd_pr__pfet_01v8 ad=1.155 pd=7.33 as=1.155 ps=7.33 w=7 l=1
X201 GND.t175 CS_BIAS.t61 VOUT.t89 GND.t48 sky130_fd_pr__nfet_01v8 ad=0.99 pd=6.33 as=0.99 ps=6.33 w=6 l=2
X202 GND.t81 GND.t78 GND.t80 GND.t79 sky130_fd_pr__nfet_01v8 ad=2.34 pd=12.78 as=0 ps=0 w=6 l=2
X203 VDD.t129 a_n7677_8299.t72 VOUT.t38 VDD.t123 sky130_fd_pr__pfet_01v8 ad=1.155 pd=7.33 as=1.155 ps=7.33 w=7 l=1
X204 a_n1455_n3928.t4 VP.t12 a_n2686_12778.t2 GND.t21 sky130_fd_pr__nfet_01v8 ad=2.73 pd=14.78 as=1.155 ps=7.33 w=7 l=1
X205 VDD.t54 VDD.t51 VDD.t53 VDD.t52 sky130_fd_pr__pfet_01v8 ad=2.34 pd=12.78 as=0 ps=0 w=6 l=1
X206 VDD.t50 VDD.t47 VDD.t49 VDD.t48 sky130_fd_pr__pfet_01v8 ad=2.34 pd=12.78 as=0 ps=0 w=6 l=1
X207 GND.t77 GND.t74 GND.t76 GND.t75 sky130_fd_pr__nfet_01v8 ad=2.34 pd=12.78 as=0 ps=0 w=6 l=2
X208 a_n2686_8422.t1 a_n2686_12778.t58 VDD.t19 VDD.t18 sky130_fd_pr__pfet_01v8 ad=2.34 pd=12.78 as=0.99 ps=6.33 w=6 l=1
X209 VDD.t128 a_n7677_8299.t73 VOUT.t37 VDD.t127 sky130_fd_pr__pfet_01v8 ad=2.73 pd=14.78 as=1.155 ps=7.33 w=7 l=1
X210 VOUT.t70 a_n7677_8299.t74 VDD.t126 VDD.t125 sky130_fd_pr__pfet_01v8 ad=1.155 pd=7.33 as=2.73 ps=14.78 w=7 l=1
X211 DIFFPAIR_BIAS.t1 DIFFPAIR_BIAS.t0 GND.t23 GND.t22 sky130_fd_pr__nfet_01v8 ad=2.73 pd=14.78 as=2.73 ps=14.78 w=7 l=2
X212 VOUT.t5 CS_BIAS.t62 GND.t29 GND.t28 sky130_fd_pr__nfet_01v8 ad=0.99 pd=6.33 as=0.99 ps=6.33 w=6 l=2
X213 a_n7677_8299.t2 VN.t11 a_n1455_n3928.t9 GND.t20 sky130_fd_pr__nfet_01v8 ad=1.155 pd=7.33 as=1.155 ps=7.33 w=7 l=1
X214 VDD.t124 a_n7677_8299.t75 VOUT.t69 VDD.t123 sky130_fd_pr__pfet_01v8 ad=1.155 pd=7.33 as=1.155 ps=7.33 w=7 l=1
X215 VOUT.t41 a_n7677_8299.t76 VDD.t122 VDD.t121 sky130_fd_pr__pfet_01v8 ad=1.155 pd=7.33 as=1.155 ps=7.33 w=7 l=1
X216 a_n2686_8422.t0 a_n2686_12778.t59 VDD.t24 VDD.t23 sky130_fd_pr__pfet_01v8 ad=0.99 pd=6.33 as=0.99 ps=6.33 w=6 l=1
X217 VDD.t120 a_n7677_8299.t77 VOUT.t40 VDD.t119 sky130_fd_pr__pfet_01v8 ad=1.155 pd=7.33 as=1.155 ps=7.33 w=7 l=1
X218 VDD.t46 VDD.t43 VDD.t45 VDD.t44 sky130_fd_pr__pfet_01v8 ad=2.73 pd=14.78 as=0 ps=0 w=7 l=1
X219 VOUT.t82 a_n7677_8299.t78 VDD.t118 VDD.t117 sky130_fd_pr__pfet_01v8 ad=1.155 pd=7.33 as=1.155 ps=7.33 w=7 l=1
X220 VP.t0 GND.t71 GND.t73 GND.t72 sky130_fd_pr__nfet_01v8 ad=0.165 pd=1.33 as=0.165 ps=1.33 w=1 l=0.5
X221 VOUT.t81 a_n7677_8299.t79 VDD.t116 VDD.t115 sky130_fd_pr__pfet_01v8 ad=1.155 pd=7.33 as=1.155 ps=7.33 w=7 l=1
X222 GND.t70 GND.t67 GND.t69 GND.t68 sky130_fd_pr__nfet_01v8 ad=2.73 pd=14.78 as=0 ps=0 w=7 l=1
X223 GND.t159 CS_BIAS.t63 VOUT.t20 GND.t57 sky130_fd_pr__nfet_01v8 ad=2.34 pd=12.78 as=0.99 ps=6.33 w=6 l=2
X224 a_n2686_12778.t8 a_n2686_12778.t7 a_n2511_10556.t1 VDD.t4 sky130_fd_pr__pfet_01v8 ad=0.99 pd=6.33 as=0.99 ps=6.33 w=6 l=1
X225 a_n1455_n3928.t8 VN.t12 a_n7677_8299.t8 GND.t52 sky130_fd_pr__nfet_01v8 ad=2.73 pd=14.78 as=1.155 ps=7.33 w=7 l=1
X226 a_n2686_12778.t18 a_n2686_12778.t17 a_n2511_10556.t0 VDD.t1 sky130_fd_pr__pfet_01v8 ad=0.99 pd=6.33 as=0.99 ps=6.33 w=6 l=1
X227 VDD.t42 VDD.t39 VDD.t41 VDD.t40 sky130_fd_pr__pfet_01v8 ad=2.73 pd=14.78 as=0 ps=0 w=7 l=1
R0 a_n7677_8299.n172 a_n7677_8299.t63 223.136
R1 a_n7677_8299.n160 a_n7677_8299.t30 223.136
R2 a_n7677_8299.n149 a_n7677_8299.t58 223.136
R3 a_n7677_8299.n133 a_n7677_8299.t20 223.136
R4 a_n7677_8299.n118 a_n7677_8299.t73 223.136
R5 a_n7677_8299.n104 a_n7677_8299.t40 223.136
R6 a_n7677_8299.n11 a_n7677_8299.t56 223.097
R7 a_n7677_8299.n10 a_n7677_8299.t47 223.097
R8 a_n7677_8299.n9 a_n7677_8299.t22 223.097
R9 a_n7677_8299.n142 a_n7677_8299.t74 207.983
R10 a_n7677_8299.n127 a_n7677_8299.t32 207.983
R11 a_n7677_8299.n113 a_n7677_8299.t62 207.983
R12 a_n7677_8299.n178 a_n7677_8299.t50 168.701
R13 a_n7677_8299.n177 a_n7677_8299.t64 168.701
R14 a_n7677_8299.n168 a_n7677_8299.t48 168.701
R15 a_n7677_8299.n174 a_n7677_8299.t46 168.701
R16 a_n7677_8299.n173 a_n7677_8299.t59 168.701
R17 a_n7677_8299.n169 a_n7677_8299.t72 168.701
R18 a_n7677_8299.n170 a_n7677_8299.t39 168.701
R19 a_n7677_8299.n171 a_n7677_8299.t51 168.701
R20 a_n7677_8299.n166 a_n7677_8299.t43 168.701
R21 a_n7677_8299.n165 a_n7677_8299.t24 168.701
R22 a_n7677_8299.n156 a_n7677_8299.t33 168.701
R23 a_n7677_8299.n162 a_n7677_8299.t31 168.701
R24 a_n7677_8299.n161 a_n7677_8299.t71 168.701
R25 a_n7677_8299.n157 a_n7677_8299.t41 168.701
R26 a_n7677_8299.n158 a_n7677_8299.t79 168.701
R27 a_n7677_8299.n159 a_n7677_8299.t53 168.701
R28 a_n7677_8299.n155 a_n7677_8299.t78 168.701
R29 a_n7677_8299.n154 a_n7677_8299.t52 168.701
R30 a_n7677_8299.n145 a_n7677_8299.t66 168.701
R31 a_n7677_8299.n153 a_n7677_8299.t60 168.701
R32 a_n7677_8299.n152 a_n7677_8299.t38 168.701
R33 a_n7677_8299.n146 a_n7677_8299.t75 168.701
R34 a_n7677_8299.n147 a_n7677_8299.t44 168.701
R35 a_n7677_8299.n148 a_n7677_8299.t26 168.701
R36 a_n7677_8299.n132 a_n7677_8299.t69 168.701
R37 a_n7677_8299.n131 a_n7677_8299.t35 168.701
R38 a_n7677_8299.n130 a_n7677_8299.t25 168.701
R39 a_n7677_8299.n136 a_n7677_8299.t77 168.701
R40 a_n7677_8299.n137 a_n7677_8299.t61 168.701
R41 a_n7677_8299.n23 a_n7677_8299.t45 168.701
R42 a_n7677_8299.n139 a_n7677_8299.t21 168.701
R43 a_n7677_8299.n140 a_n7677_8299.t68 168.701
R44 a_n7677_8299.n117 a_n7677_8299.t37 168.701
R45 a_n7677_8299.n116 a_n7677_8299.t65 168.701
R46 a_n7677_8299.n115 a_n7677_8299.t28 168.701
R47 a_n7677_8299.n121 a_n7677_8299.t49 168.701
R48 a_n7677_8299.n122 a_n7677_8299.t76 168.701
R49 a_n7677_8299.n25 a_n7677_8299.t27 168.701
R50 a_n7677_8299.n124 a_n7677_8299.t67 168.701
R51 a_n7677_8299.n125 a_n7677_8299.t29 168.701
R52 a_n7677_8299.n103 a_n7677_8299.t70 168.701
R53 a_n7677_8299.n102 a_n7677_8299.t34 168.701
R54 a_n7677_8299.n101 a_n7677_8299.t55 168.701
R55 a_n7677_8299.n107 a_n7677_8299.t23 168.701
R56 a_n7677_8299.n108 a_n7677_8299.t42 168.701
R57 a_n7677_8299.n27 a_n7677_8299.t54 168.701
R58 a_n7677_8299.n110 a_n7677_8299.t36 168.701
R59 a_n7677_8299.n111 a_n7677_8299.t57 168.701
R60 a_n7677_8299.n19 a_n7677_8299.n0 39.6376
R61 a_n7677_8299.n5 a_n7677_8299.n0 39.7274
R62 a_n7677_8299.n29 a_n7677_8299.n0 68.6201
R63 a_n7677_8299.n20 a_n7677_8299.n0 39.6373
R64 a_n7677_8299.n175 a_n7677_8299.n0 161.3
R65 a_n7677_8299.n1 a_n7677_8299.n176 161.3
R66 a_n7677_8299.n21 a_n7677_8299.n1 39.7274
R67 a_n7677_8299.n22 a_n7677_8299.n1 39.6376
R68 a_n7677_8299.n15 a_n7677_8299.n2 39.6376
R69 a_n7677_8299.n6 a_n7677_8299.n2 39.7274
R70 a_n7677_8299.n30 a_n7677_8299.n2 68.6201
R71 a_n7677_8299.n16 a_n7677_8299.n2 39.6373
R72 a_n7677_8299.n163 a_n7677_8299.n2 161.3
R73 a_n7677_8299.n3 a_n7677_8299.n164 161.3
R74 a_n7677_8299.n17 a_n7677_8299.n3 39.7274
R75 a_n7677_8299.n18 a_n7677_8299.n3 39.6376
R76 a_n7677_8299.n35 a_n7677_8299.n33 71.8318
R77 a_n7677_8299.n34 a_n7677_8299.n150 161.3
R78 a_n7677_8299.n151 a_n7677_8299.n34 161.3
R79 a_n7677_8299.n32 a_n7677_8299.n7 74.8341
R80 a_n7677_8299.n31 a_n7677_8299.n4 68.6201
R81 a_n7677_8299.n12 a_n7677_8299.n4 39.6373
R82 a_n7677_8299.n4 a_n7677_8299.n8 68.6201
R83 a_n7677_8299.n13 a_n7677_8299.n4 39.7274
R84 a_n7677_8299.n14 a_n7677_8299.n4 39.6376
R85 a_n7677_8299.n141 a_n7677_8299.n53 161.3
R86 a_n7677_8299.n50 a_n7677_8299.n53 161.3
R87 a_n7677_8299.n52 a_n7677_8299.n51 71.4497
R88 a_n7677_8299.n49 a_n7677_8299.n48 68.7078
R89 a_n7677_8299.n24 a_n7677_8299.n23 11.426
R90 a_n7677_8299.n47 a_n7677_8299.n24 74.9385
R91 a_n7677_8299.n138 a_n7677_8299.n46 161.3
R92 a_n7677_8299.n43 a_n7677_8299.n46 161.3
R93 a_n7677_8299.n45 a_n7677_8299.n44 71.6402
R94 a_n7677_8299.n42 a_n7677_8299.n41 68.6201
R95 a_n7677_8299.n38 a_n7677_8299.n40 74.8341
R96 a_n7677_8299.n135 a_n7677_8299.n39 161.3
R97 a_n7677_8299.n39 a_n7677_8299.n134 161.3
R98 a_n7677_8299.n37 a_n7677_8299.n36 71.8318
R99 a_n7677_8299.n126 a_n7677_8299.n71 161.3
R100 a_n7677_8299.n68 a_n7677_8299.n71 161.3