* NGSPICE file created from opamp_sample_0010.ext - technology: sky130A

.subckt opamp_sample_0010 GND VOUT VDD VN VP CS_BIAS DIFFPAIR_BIAS
X0 GND.t166 GND.t163 GND.t165 GND.t164 sky130_fd_pr__nfet_01v8 ad=3.384 pd=10.84 as=0 ps=0 w=4.7 l=5.88
X1 VOUT.t15 CS_BIAS.t8 GND.t25 GND.t0 sky130_fd_pr__nfet_01v8 ad=1.9503 pd=6.57 as=4.2552 ps=13.26 w=5.91 l=4.37
X2 GND.t8 CS_BIAS.t9 VOUT.t14 GND.t6 sky130_fd_pr__nfet_01v8 ad=4.2552 pd=13.26 as=1.9503 ps=6.57 w=5.91 l=4.37
X3 VN.t6 GND.t160 GND.t162 GND.t161 sky130_fd_pr__nfet_01v8 ad=0.165 pd=1.33 as=0.165 ps=1.33 w=1 l=0.5
X4 VDD.t133 a_n11634_10845.t22 a_n11778_11043.t16 VDD.t132 sky130_fd_pr__pfet_01v8 ad=0.8448 pd=3.22 as=1.8432 ps=6.56 w=2.56 l=5.82
X5 VOUT.t26 a_n8732_9422.t0 sky130_fd_pr__cap_mim_m3_1 l=18.34 w=7.84
X6 a_n3337_n4072.t3 DIFFPAIR_BIAS.t8 GND.t27 GND.t26 sky130_fd_pr__nfet_01v8 ad=3.384 pd=10.84 as=3.384 ps=10.84 w=4.7 l=5.88
X7 VOUT.t13 CS_BIAS.t10 GND.t1 GND.t0 sky130_fd_pr__nfet_01v8 ad=1.9503 pd=6.57 as=4.2552 ps=13.26 w=5.91 l=4.37
X8 a_n11634_10845.t21 VP.t7 a_n3337_n4072.t7 GND.t169 sky130_fd_pr__nfet_01v8 ad=5.1336 pd=15.7 as=5.1336 ps=15.7 w=7.13 l=2.31
X9 VOUT.t25 a_n17232_8522.t12 VDD.t146 VDD.t137 sky130_fd_pr__pfet_01v8 ad=1.7496 pd=6.3 as=1.7496 ps=6.3 w=2.43 l=5.92
X10 GND.t159 GND.t157 GND.t158 GND.t84 sky130_fd_pr__nfet_01v8 ad=4.2552 pd=13.26 as=0 ps=0 w=5.91 l=4.37
X11 a_n11778_11043.t12 a_n11634_10845.t3 a_n11634_10845.t4 VDD.t120 sky130_fd_pr__pfet_01v8 ad=0.8448 pd=3.22 as=1.8432 ps=6.56 w=2.56 l=5.82
X12 GND.t156 GND.t153 GND.t155 GND.t154 sky130_fd_pr__nfet_01v8 ad=3.384 pd=10.84 as=0 ps=0 w=4.7 l=5.88
X13 GND.t116 GND.t114 VP.t6 GND.t115 sky130_fd_pr__nfet_01v8 ad=0.165 pd=1.33 as=0.39 ps=2.78 w=1 l=0.5
X14 VDD.t127 a_n11634_10845.t23 a_n8732_9422.t8 VDD.t126 sky130_fd_pr__pfet_01v8 ad=0.8448 pd=3.22 as=0.8448 ps=3.22 w=2.56 l=5.82
X15 VDD.t91 VDD.t89 VDD.t90 VDD.t33 sky130_fd_pr__pfet_01v8 ad=1.7496 pd=6.3 as=0 ps=0 w=2.43 l=5.92
X16 a_n11778_11043.t17 a_n11634_10845.t24 VDD.t131 VDD.t130 sky130_fd_pr__pfet_01v8 ad=0.8448 pd=3.22 as=0.8448 ps=3.22 w=2.56 l=5.82
X17 VDD.t88 VDD.t86 VDD.t87 VDD.t43 sky130_fd_pr__pfet_01v8 ad=1.7496 pd=6.3 as=0 ps=0 w=2.43 l=5.92
X18 a_n11778_11043.t11 a_n11634_10845.t5 a_n11634_10845.t6 VDD.t94 sky130_fd_pr__pfet_01v8 ad=0.8448 pd=3.22 as=0.8448 ps=3.22 w=2.56 l=5.82
X19 VN.t5 GND.t150 GND.t152 GND.t151 sky130_fd_pr__nfet_01v8 ad=0.165 pd=1.33 as=0.165 ps=1.33 w=1 l=0.5
X20 VN.t4 GND.t147 GND.t149 GND.t148 sky130_fd_pr__nfet_01v8 ad=0.165 pd=1.33 as=0.165 ps=1.33 w=1 l=0.5
X21 DIFFPAIR_BIAS.t7 DIFFPAIR_BIAS.t6 GND.t38 GND.t37 sky130_fd_pr__nfet_01v8 ad=3.384 pd=10.84 as=3.384 ps=10.84 w=4.7 l=5.88
X22 VDD.t85 VDD.t83 VDD.t84 VDD.t33 sky130_fd_pr__pfet_01v8 ad=1.7496 pd=6.3 as=0 ps=0 w=2.43 l=5.92
X23 a_n11634_10845.t14 a_n11634_10845.t13 a_n11778_11043.t10 VDD.t119 sky130_fd_pr__pfet_01v8 ad=0.8448 pd=3.22 as=0.8448 ps=3.22 w=2.56 l=5.82
X24 a_n11778_11043.t13 a_n11634_10845.t25 VDD.t129 VDD.t128 sky130_fd_pr__pfet_01v8 ad=1.8432 pd=6.56 as=0.8448 ps=3.22 w=2.56 l=5.82
X25 GND.t146 GND.t144 GND.t145 GND.t63 sky130_fd_pr__nfet_01v8 ad=4.2552 pd=13.26 as=0 ps=0 w=5.91 l=4.37
X26 VOUT.t24 a_n17232_8522.t13 VDD.t145 VDD.t137 sky130_fd_pr__pfet_01v8 ad=1.7496 pd=6.3 as=1.7496 ps=6.3 w=2.43 l=5.92
X27 VDD.t82 VDD.t80 VDD.t81 VDD.t22 sky130_fd_pr__pfet_01v8 ad=1.8432 pd=6.56 as=0 ps=0 w=2.56 l=5.82
X28 DIFFPAIR_BIAS.t5 DIFFPAIR_BIAS.t4 GND.t168 GND.t167 sky130_fd_pr__nfet_01v8 ad=3.384 pd=10.84 as=3.384 ps=10.84 w=4.7 l=5.88
X29 GND.t143 GND.t141 GND.t142 GND.t77 sky130_fd_pr__nfet_01v8 ad=5.1336 pd=15.7 as=0 ps=0 w=7.13 l=2.31
X30 VDD.t79 VDD.t77 VDD.t78 VDD.t50 sky130_fd_pr__pfet_01v8 ad=1.8432 pd=6.56 as=0 ps=0 w=2.56 l=5.82
X31 VDD.t76 VDD.t74 VDD.t75 VDD.t33 sky130_fd_pr__pfet_01v8 ad=1.7496 pd=6.3 as=0 ps=0 w=2.43 l=5.92
X32 CS_BIAS.t7 CS_BIAS.t6 GND.t9 GND.t0 sky130_fd_pr__nfet_01v8 ad=1.9503 pd=6.57 as=4.2552 ps=13.26 w=5.91 l=4.37
X33 a_n11634_10845.t8 a_n11634_10845.t7 a_n11778_11043.t9 VDD.t107 sky130_fd_pr__pfet_01v8 ad=0.8448 pd=3.22 as=0.8448 ps=3.22 w=2.56 l=5.82
X34 VDD.t125 a_n11634_10845.t26 a_n8732_9422.t7 VDD.t124 sky130_fd_pr__pfet_01v8 ad=0.8448 pd=3.22 as=1.8432 ps=6.56 w=2.56 l=5.82
X35 VDD.t73 VDD.t71 VDD.t72 VDD.t33 sky130_fd_pr__pfet_01v8 ad=1.7496 pd=6.3 as=0 ps=0 w=2.43 l=5.92
X36 a_n3337_n4072.t2 DIFFPAIR_BIAS.t9 GND.t16 GND.t15 sky130_fd_pr__nfet_01v8 ad=3.384 pd=10.84 as=3.384 ps=10.84 w=4.7 l=5.88
X37 GND.t140 GND.t138 GND.t139 GND.t67 sky130_fd_pr__nfet_01v8 ad=4.2552 pd=13.26 as=0 ps=0 w=5.91 l=4.37
X38 a_n3337_n4072.t1 DIFFPAIR_BIAS.t10 GND.t21 GND.t20 sky130_fd_pr__nfet_01v8 ad=3.384 pd=10.84 as=3.384 ps=10.84 w=4.7 l=5.88
X39 GND.t137 GND.t135 GND.t136 GND.t84 sky130_fd_pr__nfet_01v8 ad=4.2552 pd=13.26 as=0 ps=0 w=5.91 l=4.37
X40 GND.t29 CS_BIAS.t11 VOUT.t12 GND.t6 sky130_fd_pr__nfet_01v8 ad=4.2552 pd=13.26 as=1.9503 ps=6.57 w=5.91 l=4.37
X41 GND.t134 GND.t132 VP.t5 GND.t133 sky130_fd_pr__nfet_01v8 ad=0.165 pd=1.33 as=0.165 ps=1.33 w=1 l=0.5
X42 GND.t131 GND.t129 GND.t130 GND.t63 sky130_fd_pr__nfet_01v8 ad=4.2552 pd=13.26 as=0 ps=0 w=5.91 l=4.37
X43 GND.t7 CS_BIAS.t12 VOUT.t11 GND.t6 sky130_fd_pr__nfet_01v8 ad=4.2552 pd=13.26 as=1.9503 ps=6.57 w=5.91 l=4.37
X44 VDD.t70 VDD.t68 VDD.t69 VDD.t18 sky130_fd_pr__pfet_01v8 ad=1.8432 pd=6.56 as=0 ps=0 w=2.56 l=5.82
X45 DIFFPAIR_BIAS.t3 DIFFPAIR_BIAS.t2 GND.t3 GND.t2 sky130_fd_pr__nfet_01v8 ad=3.384 pd=10.84 as=3.384 ps=10.84 w=4.7 l=5.88
X46 GND.t128 GND.t126 GND.t127 GND.t63 sky130_fd_pr__nfet_01v8 ad=4.2552 pd=13.26 as=0 ps=0 w=5.91 l=4.37
X47 GND.t119 GND.t117 VN.t3 GND.t118 sky130_fd_pr__nfet_01v8 ad=0.39 pd=2.78 as=0.165 ps=1.33 w=1 l=0.5
X48 GND.t125 GND.t123 GND.t124 GND.t53 sky130_fd_pr__nfet_01v8 ad=4.2552 pd=13.26 as=0 ps=0 w=5.91 l=4.37
X49 GND.t122 GND.t120 GND.t121 GND.t53 sky130_fd_pr__nfet_01v8 ad=4.2552 pd=13.26 as=0 ps=0 w=5.91 l=4.37
X50 GND.t28 CS_BIAS.t4 CS_BIAS.t5 GND.t18 sky130_fd_pr__nfet_01v8 ad=4.2552 pd=13.26 as=1.9503 ps=6.57 w=5.91 l=4.37
X51 VDD.t123 a_n11634_10845.t27 a_n11778_11043.t15 VDD.t122 sky130_fd_pr__pfet_01v8 ad=0.8448 pd=3.22 as=0.8448 ps=3.22 w=2.56 l=5.82
X52 VDD.t67 VDD.t65 VDD.t66 VDD.t43 sky130_fd_pr__pfet_01v8 ad=1.7496 pd=6.3 as=0 ps=0 w=2.43 l=5.92
X53 a_n11778_11043.t8 a_n11634_10845.t11 a_n11634_10845.t12 VDD.t121 sky130_fd_pr__pfet_01v8 ad=1.8432 pd=6.56 as=0.8448 ps=3.22 w=2.56 l=5.82
X54 a_n17232_8522.t9 a_n11634_10845.t28 a_n8732_9422.t10 VDD.t121 sky130_fd_pr__pfet_01v8 ad=1.8432 pd=6.56 as=0.8448 ps=3.22 w=2.56 l=5.82
X55 a_n17232_8522.t8 a_n11634_10845.t29 a_n8732_9422.t11 VDD.t108 sky130_fd_pr__pfet_01v8 ad=0.8448 pd=3.22 as=1.8432 ps=6.56 w=2.56 l=5.82
X56 VDD.t64 VDD.t62 VDD.t63 VDD.t11 sky130_fd_pr__pfet_01v8 ad=1.7496 pd=6.3 as=0 ps=0 w=2.43 l=5.92
X57 a_11906_11043# a_11906_11043# a_11906_11043# VDD.t147 sky130_fd_pr__pfet_01v8 ad=1.8432 pd=6.56 as=3.6864 ps=13.12 w=2.56 l=5.82
X58 a_n11778_11043.t7 a_n11634_10845.t19 a_n11634_10845.t20 VDD.t114 sky130_fd_pr__pfet_01v8 ad=1.8432 pd=6.56 as=0.8448 ps=3.22 w=2.56 l=5.82
X59 GND.t110 GND.t108 VP.t4 GND.t109 sky130_fd_pr__nfet_01v8 ad=0.39 pd=2.78 as=0.165 ps=1.33 w=1 l=0.5
X60 GND.t113 GND.t111 GND.t112 GND.t43 sky130_fd_pr__nfet_01v8 ad=5.1336 pd=15.7 as=0 ps=0 w=7.13 l=2.31
X61 VOUT.t10 CS_BIAS.t13 GND.t35 GND.t10 sky130_fd_pr__nfet_01v8 ad=1.9503 pd=6.57 as=4.2552 ps=13.26 w=5.91 l=4.37
X62 VDD.t61 VDD.t59 VDD.t60 VDD.t43 sky130_fd_pr__pfet_01v8 ad=1.7496 pd=6.3 as=0 ps=0 w=2.43 l=5.92
X63 VOUT.t23 a_n17232_8522.t14 VDD.t144 VDD.t135 sky130_fd_pr__pfet_01v8 ad=1.7496 pd=6.3 as=1.7496 ps=6.3 w=2.43 l=5.92
X64 a_n11634_10845.t0 VP.t8 a_n3337_n4072.t4 GND.t23 sky130_fd_pr__nfet_01v8 ad=5.1336 pd=15.7 as=5.1336 ps=15.7 w=7.13 l=2.31
X65 a_n17232_8522.t7 a_n11634_10845.t30 a_n8732_9422.t12 VDD.t104 sky130_fd_pr__pfet_01v8 ad=0.8448 pd=3.22 as=0.8448 ps=3.22 w=2.56 l=5.82
X66 GND.t107 GND.t105 VN.t2 GND.t106 sky130_fd_pr__nfet_01v8 ad=0.165 pd=1.33 as=0.165 ps=1.33 w=1 l=0.5
X67 VDD.t58 VDD.t56 VDD.t57 VDD.t1 sky130_fd_pr__pfet_01v8 ad=1.7496 pd=6.3 as=0 ps=0 w=2.43 l=5.92
X68 GND.t104 GND.t102 GND.t103 GND.t67 sky130_fd_pr__nfet_01v8 ad=4.2552 pd=13.26 as=0 ps=0 w=5.91 l=4.37
X69 a_n3337_n4072.t0 DIFFPAIR_BIAS.t11 GND.t14 GND.t13 sky130_fd_pr__nfet_01v8 ad=3.384 pd=10.84 as=3.384 ps=10.84 w=4.7 l=5.88
X70 GND.t33 CS_BIAS.t14 VOUT.t9 GND.t18 sky130_fd_pr__nfet_01v8 ad=4.2552 pd=13.26 as=1.9503 ps=6.57 w=5.91 l=4.37
X71 a_n17232_8522.t6 a_n11634_10845.t31 a_n8732_9422.t13 VDD.t120 sky130_fd_pr__pfet_01v8 ad=0.8448 pd=3.22 as=1.8432 ps=6.56 w=2.56 l=5.82
X72 VDD.t55 VDD.t53 VDD.t54 VDD.t43 sky130_fd_pr__pfet_01v8 ad=1.7496 pd=6.3 as=0 ps=0 w=2.43 l=5.92
X73 GND.t30 CS_BIAS.t15 VOUT.t8 GND.t18 sky130_fd_pr__nfet_01v8 ad=4.2552 pd=13.26 as=1.9503 ps=6.57 w=5.91 l=4.37
X74 a_n8732_9422.t18 a_n11634_10845.t32 a_n17232_8522.t5 VDD.t119 sky130_fd_pr__pfet_01v8 ad=0.8448 pd=3.22 as=0.8448 ps=3.22 w=2.56 l=5.82
X75 VOUT.t22 a_n17232_8522.t15 VDD.t143 VDD.t135 sky130_fd_pr__pfet_01v8 ad=1.7496 pd=6.3 as=1.7496 ps=6.3 w=2.43 l=5.92
X76 VDD.t118 a_n11634_10845.t33 a_n8732_9422.t6 VDD.t117 sky130_fd_pr__pfet_01v8 ad=0.8448 pd=3.22 as=0.8448 ps=3.22 w=2.56 l=5.82
X77 VOUT.t21 a_n17232_8522.t16 VDD.t142 VDD.t135 sky130_fd_pr__pfet_01v8 ad=1.7496 pd=6.3 as=1.7496 ps=6.3 w=2.43 l=5.92
X78 GND.t101 GND.t99 GND.t100 GND.t63 sky130_fd_pr__nfet_01v8 ad=4.2552 pd=13.26 as=0 ps=0 w=5.91 l=4.37
X79 a_n8732_9422.t14 a_n11634_10845.t34 a_n17232_8522.t4 VDD.t103 sky130_fd_pr__pfet_01v8 ad=0.8448 pd=3.22 as=0.8448 ps=3.22 w=2.56 l=5.82
X80 a_n8732_9422.t15 a_n11634_10845.t35 a_n17232_8522.t3 VDD.t111 sky130_fd_pr__pfet_01v8 ad=0.8448 pd=3.22 as=0.8448 ps=3.22 w=2.56 l=5.82
X81 VOUT.t7 CS_BIAS.t16 GND.t36 GND.t0 sky130_fd_pr__nfet_01v8 ad=1.9503 pd=6.57 as=4.2552 ps=13.26 w=5.91 l=4.37
X82 GND.t98 GND.t96 GND.t97 GND.t84 sky130_fd_pr__nfet_01v8 ad=4.2552 pd=13.26 as=0 ps=0 w=5.91 l=4.37
X83 VOUT.t20 a_n17232_8522.t17 VDD.t141 VDD.t135 sky130_fd_pr__pfet_01v8 ad=1.7496 pd=6.3 as=1.7496 ps=6.3 w=2.43 l=5.92
X84 VOUT.t6 CS_BIAS.t17 GND.t24 GND.t0 sky130_fd_pr__nfet_01v8 ad=1.9503 pd=6.57 as=4.2552 ps=13.26 w=5.91 l=4.37
X85 VDD.t100 a_n11634_10845.t36 a_n8732_9422.t5 VDD.t99 sky130_fd_pr__pfet_01v8 ad=0.8448 pd=3.22 as=1.8432 ps=6.56 w=2.56 l=5.82
X86 GND.t95 GND.t93 GND.t94 GND.t84 sky130_fd_pr__nfet_01v8 ad=4.2552 pd=13.26 as=0 ps=0 w=5.91 l=4.37
X87 a_n17232_8522.t11 VN.t7 a_n3337_n4072.t5 GND.t169 sky130_fd_pr__nfet_01v8 ad=5.1336 pd=15.7 as=5.1336 ps=15.7 w=7.13 l=2.31
X88 VP.t3 GND.t90 GND.t92 GND.t91 sky130_fd_pr__nfet_01v8 ad=0.165 pd=1.33 as=0.165 ps=1.33 w=1 l=0.5
X89 a_n11778_11043.t0 a_n11634_10845.t37 VDD.t116 VDD.t115 sky130_fd_pr__pfet_01v8 ad=1.8432 pd=6.56 as=0.8448 ps=3.22 w=2.56 l=5.82
X90 VP.t2 GND.t87 GND.t89 GND.t88 sky130_fd_pr__nfet_01v8 ad=0.165 pd=1.33 as=0.165 ps=1.33 w=1 l=0.5
X91 a_n17232_8522.t2 a_n11634_10845.t38 a_n8732_9422.t16 VDD.t114 sky130_fd_pr__pfet_01v8 ad=1.8432 pd=6.56 as=0.8448 ps=3.22 w=2.56 l=5.82
X92 a_n8732_9422.t4 a_n11634_10845.t39 VDD.t113 VDD.t112 sky130_fd_pr__pfet_01v8 ad=1.8432 pd=6.56 as=0.8448 ps=3.22 w=2.56 l=5.82
X93 GND.t86 GND.t83 GND.t85 GND.t84 sky130_fd_pr__nfet_01v8 ad=4.2552 pd=13.26 as=0 ps=0 w=5.91 l=4.37
X94 VDD.t52 VDD.t49 VDD.t51 VDD.t50 sky130_fd_pr__pfet_01v8 ad=1.8432 pd=6.56 as=0 ps=0 w=2.56 l=5.82
X95 CS_BIAS.t3 CS_BIAS.t2 GND.t17 GND.t10 sky130_fd_pr__nfet_01v8 ad=1.9503 pd=6.57 as=4.2552 ps=13.26 w=5.91 l=4.37
X96 VDD.t48 VDD.t46 VDD.t47 VDD.t11 sky130_fd_pr__pfet_01v8 ad=1.7496 pd=6.3 as=0 ps=0 w=2.43 l=5.92
X97 VDD.t45 VDD.t42 VDD.t44 VDD.t43 sky130_fd_pr__pfet_01v8 ad=1.7496 pd=6.3 as=0 ps=0 w=2.43 l=5.92
X98 a_n13358_11043# a_n13358_11043# a_n13358_11043# VDD.t134 sky130_fd_pr__pfet_01v8 ad=1.8432 pd=6.56 as=3.6864 ps=13.12 w=2.56 l=5.82
X99 VDD.t41 VDD.t39 VDD.t40 VDD.t29 sky130_fd_pr__pfet_01v8 ad=1.8432 pd=6.56 as=0 ps=0 w=2.56 l=5.82
X100 VOUT.t19 a_n17232_8522.t18 VDD.t140 VDD.t137 sky130_fd_pr__pfet_01v8 ad=1.7496 pd=6.3 as=1.7496 ps=6.3 w=2.43 l=5.92
X101 GND.t82 GND.t80 GND.t81 GND.t53 sky130_fd_pr__nfet_01v8 ad=4.2552 pd=13.26 as=0 ps=0 w=5.91 l=4.37
X102 VDD.t38 VDD.t36 VDD.t37 VDD.t11 sky130_fd_pr__pfet_01v8 ad=1.7496 pd=6.3 as=0 ps=0 w=2.43 l=5.92
X103 GND.t34 CS_BIAS.t18 VOUT.t5 GND.t18 sky130_fd_pr__nfet_01v8 ad=4.2552 pd=13.26 as=1.9503 ps=6.57 w=5.91 l=4.37
X104 GND.t31 CS_BIAS.t0 CS_BIAS.t1 GND.t6 sky130_fd_pr__nfet_01v8 ad=4.2552 pd=13.26 as=1.9503 ps=6.57 w=5.91 l=4.37
X105 a_n11634_10845.t10 a_n11634_10845.t9 a_n11778_11043.t6 VDD.t111 sky130_fd_pr__pfet_01v8 ad=0.8448 pd=3.22 as=0.8448 ps=3.22 w=2.56 l=5.82
X106 a_n8732_9422.t3 a_n11634_10845.t40 VDD.t110 VDD.t109 sky130_fd_pr__pfet_01v8 ad=0.8448 pd=3.22 as=0.8448 ps=3.22 w=2.56 l=5.82
X107 GND.t79 GND.t76 GND.t78 GND.t77 sky130_fd_pr__nfet_01v8 ad=5.1336 pd=15.7 as=0 ps=0 w=7.13 l=2.31
X108 VP.t1 GND.t46 GND.t48 GND.t47 sky130_fd_pr__nfet_01v8 ad=0.165 pd=1.33 as=0.165 ps=1.33 w=1 l=0.5
X109 GND.t75 GND.t73 GND.t74 GND.t67 sky130_fd_pr__nfet_01v8 ad=4.2552 pd=13.26 as=0 ps=0 w=5.91 l=4.37
X110 VDD.t35 VDD.t32 VDD.t34 VDD.t33 sky130_fd_pr__pfet_01v8 ad=1.7496 pd=6.3 as=0 ps=0 w=2.43 l=5.92
X111 VDD.t31 VDD.t28 VDD.t30 VDD.t29 sky130_fd_pr__pfet_01v8 ad=1.8432 pd=6.56 as=0 ps=0 w=2.56 l=5.82
X112 VDD.t27 VDD.t25 VDD.t26 VDD.t11 sky130_fd_pr__pfet_01v8 ad=1.7496 pd=6.3 as=0 ps=0 w=2.43 l=5.92
X113 GND.t72 GND.t70 GND.t71 GND.t67 sky130_fd_pr__nfet_01v8 ad=4.2552 pd=13.26 as=0 ps=0 w=5.91 l=4.37
X114 a_n11778_11043.t5 a_n11634_10845.t1 a_n11634_10845.t2 VDD.t108 sky130_fd_pr__pfet_01v8 ad=0.8448 pd=3.22 as=1.8432 ps=6.56 w=2.56 l=5.82
X115 VDD.t24 VDD.t21 VDD.t23 VDD.t22 sky130_fd_pr__pfet_01v8 ad=1.8432 pd=6.56 as=0 ps=0 w=2.56 l=5.82
X116 GND.t69 GND.t66 GND.t68 GND.t67 sky130_fd_pr__nfet_01v8 ad=4.2552 pd=13.26 as=0 ps=0 w=5.91 l=4.37
X117 a_n8732_9422.t17 a_n11634_10845.t41 a_n17232_8522.t1 VDD.t107 sky130_fd_pr__pfet_01v8 ad=0.8448 pd=3.22 as=0.8448 ps=3.22 w=2.56 l=5.82
X118 GND.t22 CS_BIAS.t19 VOUT.t4 GND.t6 sky130_fd_pr__nfet_01v8 ad=4.2552 pd=13.26 as=1.9503 ps=6.57 w=5.91 l=4.37
X119 GND.t65 GND.t62 GND.t64 GND.t63 sky130_fd_pr__nfet_01v8 ad=4.2552 pd=13.26 as=0 ps=0 w=5.91 l=4.37
X120 GND.t61 GND.t59 GND.t60 GND.t53 sky130_fd_pr__nfet_01v8 ad=4.2552 pd=13.26 as=0 ps=0 w=5.91 l=4.37
X121 GND.t55 GND.t52 GND.t54 GND.t53 sky130_fd_pr__nfet_01v8 ad=4.2552 pd=13.26 as=0 ps=0 w=5.91 l=4.37
X122 VDD.t106 a_n11634_10845.t42 a_n11778_11043.t14 VDD.t105 sky130_fd_pr__pfet_01v8 ad=0.8448 pd=3.22 as=1.8432 ps=6.56 w=2.56 l=5.82
X123 GND.t58 GND.t56 VN.t1 GND.t57 sky130_fd_pr__nfet_01v8 ad=0.165 pd=1.33 as=0.165 ps=1.33 w=1 l=0.5
X124 VDD.t20 VDD.t17 VDD.t19 VDD.t18 sky130_fd_pr__pfet_01v8 ad=1.8432 pd=6.56 as=0 ps=0 w=2.56 l=5.82
X125 VOUT.t27 a_n8732_9422.t0 sky130_fd_pr__cap_mim_m3_1 l=18.34 w=7.84
X126 VDD.t16 VDD.t14 VDD.t15 VDD.t1 sky130_fd_pr__pfet_01v8 ad=1.7496 pd=6.3 as=0 ps=0 w=2.43 l=5.92
X127 VDD.t13 VDD.t10 VDD.t12 VDD.t11 sky130_fd_pr__pfet_01v8 ad=1.7496 pd=6.3 as=0 ps=0 w=2.43 l=5.92
X128 GND.t51 GND.t49 VP.t0 GND.t50 sky130_fd_pr__nfet_01v8 ad=0.165 pd=1.33 as=0.165 ps=1.33 w=1 l=0.5
X129 a_n11778_11043.t4 a_n11634_10845.t15 a_n11634_10845.t16 VDD.t104 sky130_fd_pr__pfet_01v8 ad=0.8448 pd=3.22 as=0.8448 ps=3.22 w=2.56 l=5.82
X130 VOUT.t3 CS_BIAS.t20 GND.t32 GND.t10 sky130_fd_pr__nfet_01v8 ad=1.9503 pd=6.57 as=4.2552 ps=13.26 w=5.91 l=4.37
X131 GND.t45 GND.t42 GND.t44 GND.t43 sky130_fd_pr__nfet_01v8 ad=5.1336 pd=15.7 as=0 ps=0 w=7.13 l=2.31
X132 VOUT.t2 CS_BIAS.t21 GND.t11 GND.t10 sky130_fd_pr__nfet_01v8 ad=1.9503 pd=6.57 as=4.2552 ps=13.26 w=5.91 l=4.37
X133 a_n11634_10845.t18 a_n11634_10845.t17 a_n11778_11043.t3 VDD.t103 sky130_fd_pr__pfet_01v8 ad=0.8448 pd=3.22 as=0.8448 ps=3.22 w=2.56 l=5.82
X134 VDD.t9 VDD.t7 VDD.t8 VDD.t1 sky130_fd_pr__pfet_01v8 ad=1.7496 pd=6.3 as=0 ps=0 w=2.43 l=5.92
X135 a_n11778_11043.t2 a_n11634_10845.t43 VDD.t102 VDD.t101 sky130_fd_pr__pfet_01v8 ad=0.8448 pd=3.22 as=0.8448 ps=3.22 w=2.56 l=5.82
X136 a_n17232_8522.t10 VN.t8 a_n3337_n4072.t6 GND.t23 sky130_fd_pr__nfet_01v8 ad=5.1336 pd=15.7 as=5.1336 ps=15.7 w=7.13 l=2.31
X137 a_n8732_9422.t2 a_n11634_10845.t44 VDD.t98 VDD.t97 sky130_fd_pr__pfet_01v8 ad=0.8448 pd=3.22 as=0.8448 ps=3.22 w=2.56 l=5.82
X138 DIFFPAIR_BIAS.t1 DIFFPAIR_BIAS.t0 GND.t5 GND.t4 sky130_fd_pr__nfet_01v8 ad=3.384 pd=10.84 as=3.384 ps=10.84 w=4.7 l=5.88
X139 VOUT.t18 a_n17232_8522.t19 VDD.t139 VDD.t137 sky130_fd_pr__pfet_01v8 ad=1.7496 pd=6.3 as=1.7496 ps=6.3 w=2.43 l=5.92
X140 VOUT.t1 CS_BIAS.t22 GND.t12 GND.t10 sky130_fd_pr__nfet_01v8 ad=1.9503 pd=6.57 as=4.2552 ps=13.26 w=5.91 l=4.37
X141 VDD.t6 VDD.t4 VDD.t5 VDD.t1 sky130_fd_pr__pfet_01v8 ad=1.7496 pd=6.3 as=0 ps=0 w=2.43 l=5.92
X142 VDD.t96 a_n11634_10845.t45 a_n11778_11043.t1 VDD.t95 sky130_fd_pr__pfet_01v8 ad=0.8448 pd=3.22 as=0.8448 ps=3.22 w=2.56 l=5.82
X143 VDD.t3 VDD.t0 VDD.t2 VDD.t1 sky130_fd_pr__pfet_01v8 ad=1.7496 pd=6.3 as=0 ps=0 w=2.43 l=5.92
X144 GND.t19 CS_BIAS.t23 VOUT.t0 GND.t18 sky130_fd_pr__nfet_01v8 ad=4.2552 pd=13.26 as=1.9503 ps=6.57 w=5.91 l=4.37
X145 a_n17232_8522.t0 a_n11634_10845.t46 a_n8732_9422.t9 VDD.t94 sky130_fd_pr__pfet_01v8 ad=0.8448 pd=3.22 as=0.8448 ps=3.22 w=2.56 l=5.82
X146 VOUT.t17 a_n17232_8522.t20 VDD.t138 VDD.t137 sky130_fd_pr__pfet_01v8 ad=1.7496 pd=6.3 as=1.7496 ps=6.3 w=2.43 l=5.92
X147 a_n8732_9422.t1 a_n11634_10845.t47 VDD.t93 VDD.t92 sky130_fd_pr__pfet_01v8 ad=1.8432 pd=6.56 as=0.8448 ps=3.22 w=2.56 l=5.82
X148 VOUT.t16 a_n17232_8522.t21 VDD.t136 VDD.t135 sky130_fd_pr__pfet_01v8 ad=1.7496 pd=6.3 as=1.7496 ps=6.3 w=2.43 l=5.92
X149 GND.t41 GND.t39 VN.t0 GND.t40 sky130_fd_pr__nfet_01v8 ad=0.165 pd=1.33 as=0.39 ps=2.78 w=1 l=0.5
R0 GND.n7594 GND.n7593 2254.37
R1 GND.n6503 GND.n1209 1000.86
R2 GND.n8010 GND.n149 857.672
R3 GND.n7876 GND.n289 857.672
R4 GND.n5440 GND.n2304 857.672
R5 GND.n5586 GND.n2316 857.672
R6 GND.n6272 GND.n1513 857.672
R7 GND.n4155 GND.n3288 857.672
R8 GND.n3777 GND.n3533 857.672
R9 GND.n3780 GND.n3524 857.672
R10 GND.n5642 GND.n2233 838.452
R11 GND.n5023 GND.n5022 838.452
R12 GND.n3114 GND.n3038 838.452
R13 GND.n4196 GND.n3036 838.452
R14 GND.n5250 GND.n144 833.646
R15 GND.n5292 GND.n290 833.646
R16 GND.n5041 GND.n2405 833.646
R17 GND.n5438 GND.n2433 833.646
R18 GND.n6380 GND.n1374 833.646
R19 GND.n1400 GND.n1372 833.646
R20 GND.n4153 GND.n1495 833.646
R21 GND.n6274 GND.n1464 833.646
R22 GND.n6626 GND.n1085 747.159
R23 GND.n7592 GND.n507 747.159
R24 GND.n7753 GND.n413 747.159
R25 GND.n6502 GND.n1210 747.159
R26 GND.n6625 GND.n1084 609.133
R27 GND.n6627 GND.n6626 585
R28 GND.n6626 GND.n6625 585
R29 GND.n1089 GND.n1088 585
R30 GND.n6624 GND.n1089 585
R31 GND.n6622 GND.n6621 585
R32 GND.n6623 GND.n6622 585
R33 GND.n6620 GND.n1091 585
R34 GND.n1091 GND.n1090 585
R35 GND.n6619 GND.n6618 585
R36 GND.n6618 GND.n6617 585
R37 GND.n1096 GND.n1095 585
R38 GND.n6616 GND.n1096 585
R39 GND.n6614 GND.n6613 585
R40 GND.n6615 GND.n6614 585
R41 GND.n6612 GND.n1098 585
R42 GND.n1098 GND.n1097 585
R43 GND.n6611 GND.n6610 585
R44 GND.n6610 GND.n6609 585
R45 GND.n1104 GND.n1103 585
R46 GND.n6608 GND.n1104 585
R47 GND.n6606 GND.n6605 585
R48 GND.n6607 GND.n6606 585
R49 GND.n6604 GND.n1106 585
R50 GND.n1106 GND.n1105 585
R51 GND.n6603 GND.n6602 585
R52 GND.n6602 GND.n6601 585
R53 GND.n1112 GND.n1111 585
R54 GND.n6600 GND.n1112 585
R55 GND.n6598 GND.n6597 585
R56 GND.n6599 GND.n6598 585
R57 GND.n6596 GND.n1114 585
R58 GND.n1114 GND.n1113 585
R59 GND.n6595 GND.n6594 585
R60 GND.n6594 GND.n6593 585
R61 GND.n1120 GND.n1119 585
R62 GND.n6592 GND.n1120 585
R63 GND.n6590 GND.n6589 585
R64 GND.n6591 GND.n6590 585
R65 GND.n6588 GND.n1122 585
R66 GND.n1122 GND.n1121 585
R67 GND.n6587 GND.n6586 585
R68 GND.n6586 GND.n6585 585
R69 GND.n1128 GND.n1127 585
R70 GND.n6584 GND.n1128 585
R71 GND.n6582 GND.n6581 585
R72 GND.n6583 GND.n6582 585
R73 GND.n6580 GND.n1130 585
R74 GND.n1130 GND.n1129 585
R75 GND.n6579 GND.n6578 585
R76 GND.n6578 GND.n6577 585
R77 GND.n1136 GND.n1135 585
R78 GND.n6576 GND.n1136 585
R79 GND.n6574 GND.n6573 585
R80 GND.n6575 GND.n6574 585
R81 GND.n6572 GND.n1138 585
R82 GND.n1138 GND.n1137 585
R83 GND.n6571 GND.n6570 585
R84 GND.n6570 GND.n6569 585
R85 GND.n1144 GND.n1143 585
R86 GND.n6568 GND.n1144 585
R87 GND.n6566 GND.n6565 585
R88 GND.n6567 GND.n6566 585
R89 GND.n6564 GND.n1146 585
R90 GND.n1146 GND.n1145 585
R91 GND.n6563 GND.n6562 585
R92 GND.n6562 GND.n6561 585
R93 GND.n1152 GND.n1151 585
R94 GND.n6560 GND.n1152 585
R95 GND.n6558 GND.n6557 585
R96 GND.n6559 GND.n6558 585
R97 GND.n6556 GND.n1154 585
R98 GND.n1154 GND.n1153 585
R99 GND.n6555 GND.n6554 585
R100 GND.n6554 GND.n6553 585
R101 GND.n1160 GND.n1159 585
R102 GND.n6552 GND.n1160 585
R103 GND.n6550 GND.n6549 585
R104 GND.n6551 GND.n6550 585
R105 GND.n6548 GND.n1162 585
R106 GND.n1162 GND.n1161 585
R107 GND.n6547 GND.n6546 585
R108 GND.n6546 GND.n6545 585
R109 GND.n1168 GND.n1167 585
R110 GND.n6544 GND.n1168 585
R111 GND.n6542 GND.n6541 585
R112 GND.n6543 GND.n6542 585
R113 GND.n6540 GND.n1170 585
R114 GND.n1170 GND.n1169 585
R115 GND.n6539 GND.n6538 585
R116 GND.n6538 GND.n6537 585
R117 GND.n1176 GND.n1175 585
R118 GND.n6536 GND.n1176 585
R119 GND.n6534 GND.n6533 585
R120 GND.n6535 GND.n6534 585
R121 GND.n6532 GND.n1178 585
R122 GND.n1178 GND.n1177 585
R123 GND.n6531 GND.n6530 585
R124 GND.n6530 GND.n6529 585
R125 GND.n1184 GND.n1183 585
R126 GND.n6528 GND.n1184 585
R127 GND.n6526 GND.n6525 585
R128 GND.n6527 GND.n6526 585
R129 GND.n6524 GND.n1186 585
R130 GND.n1186 GND.n1185 585
R131 GND.n6523 GND.n6522 585
R132 GND.n6522 GND.n6521 585
R133 GND.n1192 GND.n1191 585
R134 GND.n6520 GND.n1192 585
R135 GND.n6518 GND.n6517 585
R136 GND.n6519 GND.n6518 585
R137 GND.n6516 GND.n1194 585
R138 GND.n1194 GND.n1193 585
R139 GND.n6515 GND.n6514 585
R140 GND.n6514 GND.n6513 585
R141 GND.n1200 GND.n1199 585
R142 GND.n6512 GND.n1200 585
R143 GND.n6510 GND.n6509 585
R144 GND.n6511 GND.n6510 585
R145 GND.n6508 GND.n1202 585
R146 GND.n1202 GND.n1201 585
R147 GND.n6507 GND.n6506 585
R148 GND.n6506 GND.n6505 585
R149 GND.n1208 GND.n1207 585
R150 GND.n6504 GND.n1208 585
R151 GND.n6502 GND.n6501 585
R152 GND.n6503 GND.n6502 585
R153 GND.n1086 GND.n1085 585
R154 GND.n1085 GND.n1084 585
R155 GND.n6632 GND.n6631 585
R156 GND.n6633 GND.n6632 585
R157 GND.n1083 GND.n1082 585
R158 GND.n6634 GND.n1083 585
R159 GND.n6637 GND.n6636 585
R160 GND.n6636 GND.n6635 585
R161 GND.n1080 GND.n1079 585
R162 GND.n1079 GND.n1078 585
R163 GND.n6642 GND.n6641 585
R164 GND.n6643 GND.n6642 585
R165 GND.n1077 GND.n1076 585
R166 GND.n6644 GND.n1077 585
R167 GND.n6647 GND.n6646 585
R168 GND.n6646 GND.n6645 585
R169 GND.n1074 GND.n1073 585
R170 GND.n1073 GND.n1072 585
R171 GND.n6652 GND.n6651 585
R172 GND.n6653 GND.n6652 585
R173 GND.n1071 GND.n1070 585
R174 GND.n6654 GND.n1071 585
R175 GND.n6657 GND.n6656 585
R176 GND.n6656 GND.n6655 585
R177 GND.n1068 GND.n1067 585
R178 GND.n1067 GND.n1066 585
R179 GND.n6662 GND.n6661 585
R180 GND.n6663 GND.n6662 585
R181 GND.n1065 GND.n1064 585
R182 GND.n6664 GND.n1065 585
R183 GND.n6667 GND.n6666 585
R184 GND.n6666 GND.n6665 585
R185 GND.n1062 GND.n1061 585
R186 GND.n1061 GND.n1060 585
R187 GND.n6672 GND.n6671 585
R188 GND.n6673 GND.n6672 585
R189 GND.n1059 GND.n1058 585
R190 GND.n6674 GND.n1059 585
R191 GND.n6677 GND.n6676 585
R192 GND.n6676 GND.n6675 585
R193 GND.n1056 GND.n1055 585
R194 GND.n1055 GND.n1054 585
R195 GND.n6682 GND.n6681 585
R196 GND.n6683 GND.n6682 585
R197 GND.n1053 GND.n1052 585
R198 GND.n6684 GND.n1053 585
R199 GND.n6687 GND.n6686 585
R200 GND.n6686 GND.n6685 585
R201 GND.n1050 GND.n1049 585
R202 GND.n1049 GND.n1048 585
R203 GND.n6692 GND.n6691 585
R204 GND.n6693 GND.n6692 585
R205 GND.n1047 GND.n1046 585
R206 GND.n6694 GND.n1047 585
R207 GND.n6697 GND.n6696 585
R208 GND.n6696 GND.n6695 585
R209 GND.n1044 GND.n1043 585
R210 GND.n1043 GND.n1042 585
R211 GND.n6702 GND.n6701 585
R212 GND.n6703 GND.n6702 585
R213 GND.n1041 GND.n1040 585
R214 GND.n6704 GND.n1041 585
R215 GND.n6707 GND.n6706 585
R216 GND.n6706 GND.n6705 585
R217 GND.n1038 GND.n1037 585
R218 GND.n1037 GND.n1036 585
R219 GND.n6712 GND.n6711 585
R220 GND.n6713 GND.n6712 585
R221 GND.n1035 GND.n1034 585
R222 GND.n6714 GND.n1035 585
R223 GND.n6717 GND.n6716 585
R224 GND.n6716 GND.n6715 585
R225 GND.n1032 GND.n1031 585
R226 GND.n1031 GND.n1030 585
R227 GND.n6722 GND.n6721 585
R228 GND.n6723 GND.n6722 585
R229 GND.n1029 GND.n1028 585
R230 GND.n6724 GND.n1029 585
R231 GND.n6727 GND.n6726 585
R232 GND.n6726 GND.n6725 585
R233 GND.n1026 GND.n1025 585
R234 GND.n1025 GND.n1024 585
R235 GND.n6732 GND.n6731 585
R236 GND.n6733 GND.n6732 585
R237 GND.n1023 GND.n1022 585
R238 GND.n6734 GND.n1023 585
R239 GND.n6737 GND.n6736 585
R240 GND.n6736 GND.n6735 585
R241 GND.n1020 GND.n1019 585
R242 GND.n1019 GND.n1018 585
R243 GND.n6742 GND.n6741 585
R244 GND.n6743 GND.n6742 585
R245 GND.n1017 GND.n1016 585
R246 GND.n6744 GND.n1017 585
R247 GND.n6747 GND.n6746 585
R248 GND.n6746 GND.n6745 585
R249 GND.n1014 GND.n1013 585
R250 GND.n1013 GND.n1012 585
R251 GND.n6752 GND.n6751 585
R252 GND.n6753 GND.n6752 585
R253 GND.n1011 GND.n1010 585
R254 GND.n6754 GND.n1011 585
R255 GND.n6757 GND.n6756 585
R256 GND.n6756 GND.n6755 585
R257 GND.n1008 GND.n1007 585
R258 GND.n1007 GND.n1006 585
R259 GND.n6762 GND.n6761 585
R260 GND.n6763 GND.n6762 585
R261 GND.n1005 GND.n1004 585
R262 GND.n6764 GND.n1005 585
R263 GND.n6767 GND.n6766 585
R264 GND.n6766 GND.n6765 585
R265 GND.n1002 GND.n1001 585
R266 GND.n1001 GND.n1000 585
R267 GND.n6772 GND.n6771 585
R268 GND.n6773 GND.n6772 585
R269 GND.n999 GND.n998 585
R270 GND.n6774 GND.n999 585
R271 GND.n6777 GND.n6776 585
R272 GND.n6776 GND.n6775 585
R273 GND.n996 GND.n995 585
R274 GND.n995 GND.n994 585
R275 GND.n6782 GND.n6781 585
R276 GND.n6783 GND.n6782 585
R277 GND.n993 GND.n992 585
R278 GND.n6784 GND.n993 585
R279 GND.n6787 GND.n6786 585
R280 GND.n6786 GND.n6785 585
R281 GND.n990 GND.n989 585
R282 GND.n989 GND.n988 585
R283 GND.n6792 GND.n6791 585
R284 GND.n6793 GND.n6792 585
R285 GND.n987 GND.n986 585
R286 GND.n6794 GND.n987 585
R287 GND.n6797 GND.n6796 585
R288 GND.n6796 GND.n6795 585
R289 GND.n984 GND.n983 585
R290 GND.n983 GND.n982 585
R291 GND.n6802 GND.n6801 585
R292 GND.n6803 GND.n6802 585
R293 GND.n981 GND.n980 585
R294 GND.n6804 GND.n981 585
R295 GND.n6807 GND.n6806 585
R296 GND.n6806 GND.n6805 585
R297 GND.n978 GND.n977 585
R298 GND.n977 GND.n976 585
R299 GND.n6812 GND.n6811 585
R300 GND.n6813 GND.n6812 585
R301 GND.n975 GND.n974 585
R302 GND.n6814 GND.n975 585
R303 GND.n6817 GND.n6816 585
R304 GND.n6816 GND.n6815 585
R305 GND.n972 GND.n971 585
R306 GND.n971 GND.n970 585
R307 GND.n6822 GND.n6821 585
R308 GND.n6823 GND.n6822 585
R309 GND.n969 GND.n968 585
R310 GND.n6824 GND.n969 585
R311 GND.n6827 GND.n6826 585
R312 GND.n6826 GND.n6825 585
R313 GND.n966 GND.n965 585
R314 GND.n965 GND.n964 585
R315 GND.n6832 GND.n6831 585
R316 GND.n6833 GND.n6832 585
R317 GND.n963 GND.n962 585
R318 GND.n6834 GND.n963 585
R319 GND.n6837 GND.n6836 585
R320 GND.n6836 GND.n6835 585
R321 GND.n960 GND.n959 585
R322 GND.n959 GND.n958 585
R323 GND.n6842 GND.n6841 585
R324 GND.n6843 GND.n6842 585
R325 GND.n957 GND.n956 585
R326 GND.n6844 GND.n957 585
R327 GND.n6847 GND.n6846 585
R328 GND.n6846 GND.n6845 585
R329 GND.n954 GND.n953 585
R330 GND.n953 GND.n952 585
R331 GND.n6852 GND.n6851 585
R332 GND.n6853 GND.n6852 585
R333 GND.n951 GND.n950 585
R334 GND.n6854 GND.n951 585
R335 GND.n6857 GND.n6856 585
R336 GND.n6856 GND.n6855 585
R337 GND.n948 GND.n947 585
R338 GND.n947 GND.n946 585
R339 GND.n6862 GND.n6861 585
R340 GND.n6863 GND.n6862 585
R341 GND.n945 GND.n944 585
R342 GND.n6864 GND.n945 585
R343 GND.n6867 GND.n6866 585
R344 GND.n6866 GND.n6865 585
R345 GND.n942 GND.n941 585
R346 GND.n941 GND.n940 585
R347 GND.n6872 GND.n6871 585
R348 GND.n6873 GND.n6872 585
R349 GND.n939 GND.n938 585
R350 GND.n6874 GND.n939 585
R351 GND.n6877 GND.n6876 585
R352 GND.n6876 GND.n6875 585
R353 GND.n936 GND.n935 585
R354 GND.n935 GND.n934 585
R355 GND.n6882 GND.n6881 585
R356 GND.n6883 GND.n6882 585
R357 GND.n933 GND.n932 585
R358 GND.n6884 GND.n933 585
R359 GND.n6887 GND.n6886 585
R360 GND.n6886 GND.n6885 585
R361 GND.n930 GND.n929 585
R362 GND.n929 GND.n928 585
R363 GND.n6892 GND.n6891 585
R364 GND.n6893 GND.n6892 585
R365 GND.n927 GND.n926 585
R366 GND.n6894 GND.n927 585
R367 GND.n6897 GND.n6896 585
R368 GND.n6896 GND.n6895 585
R369 GND.n924 GND.n923 585
R370 GND.n923 GND.n922 585
R371 GND.n6902 GND.n6901 585
R372 GND.n6903 GND.n6902 585
R373 GND.n921 GND.n920 585
R374 GND.n6904 GND.n921 585
R375 GND.n6907 GND.n6906 585
R376 GND.n6906 GND.n6905 585
R377 GND.n918 GND.n917 585
R378 GND.n917 GND.n916 585
R379 GND.n6912 GND.n6911 585
R380 GND.n6913 GND.n6912 585
R381 GND.n915 GND.n914 585
R382 GND.n6914 GND.n915 585
R383 GND.n6917 GND.n6916 585
R384 GND.n6916 GND.n6915 585
R385 GND.n912 GND.n911 585
R386 GND.n911 GND.n910 585
R387 GND.n6922 GND.n6921 585
R388 GND.n6923 GND.n6922 585
R389 GND.n909 GND.n908 585
R390 GND.n6924 GND.n909 585
R391 GND.n6927 GND.n6926 585
R392 GND.n6926 GND.n6925 585
R393 GND.n906 GND.n905 585
R394 GND.n905 GND.n904 585
R395 GND.n6932 GND.n6931 585
R396 GND.n6933 GND.n6932 585
R397 GND.n903 GND.n902 585
R398 GND.n6934 GND.n903 585
R399 GND.n6937 GND.n6936 585
R400 GND.n6936 GND.n6935 585
R401 GND.n900 GND.n899 585
R402 GND.n899 GND.n898 585
R403 GND.n6942 GND.n6941 585
R404 GND.n6943 GND.n6942 585
R405 GND.n897 GND.n896 585
R406 GND.n6944 GND.n897 585
R407 GND.n6947 GND.n6946 585
R408 GND.n6946 GND.n6945 585
R409 GND.n894 GND.n893 585
R410 GND.n893 GND.n892 585
R411 GND.n6952 GND.n6951 585
R412 GND.n6953 GND.n6952 585
R413 GND.n891 GND.n890 585
R414 GND.n6954 GND.n891 585
R415 GND.n6957 GND.n6956 585
R416 GND.n6956 GND.n6955 585
R417 GND.n888 GND.n887 585
R418 GND.n887 GND.n886 585
R419 GND.n6962 GND.n6961 585
R420 GND.n6963 GND.n6962 585
R421 GND.n885 GND.n884 585
R422 GND.n6964 GND.n885 585
R423 GND.n6967 GND.n6966 585
R424 GND.n6966 GND.n6965 585
R425 GND.n882 GND.n881 585
R426 GND.n881 GND.n880 585
R427 GND.n6972 GND.n6971 585
R428 GND.n6973 GND.n6972 585
R429 GND.n879 GND.n878 585
R430 GND.n6974 GND.n879 585
R431 GND.n6977 GND.n6976 585
R432 GND.n6976 GND.n6975 585
R433 GND.n876 GND.n875 585
R434 GND.n875 GND.n874 585