* NGSPICE file created from opamp_sample_0007.ext - technology: sky130A

.subckt opamp_sample_0007 GND VOUT VDD VN VP CS_BIAS DIFFPAIR_BIAS
X0 a_n8335_8538.t6 a_n8335_8538.t5 a_n8413_8735.t15 VDD.t100 sky130_fd_pr__pfet_01v8 ad=0.46035 pd=3.12 as=0.46035 ps=3.12 w=2.79 l=4.28
X1 GND.t156 GND.t154 GND.t155 GND.t73 sky130_fd_pr__nfet_01v8 ad=1.3104 pd=7.5 as=0 ps=0 w=3.36 l=6.01
X2 GND.t153 GND.t151 VP.t1 GND.t152 sky130_fd_pr__nfet_01v8 ad=0.165 pd=1.33 as=0.39 ps=2.78 w=1 l=0.5
X3 VDD.t117 a_n8335_8538.t18 a_n5434_7417.t11 VDD.t116 sky130_fd_pr__pfet_01v8 ad=0.46035 pd=3.12 as=0.46035 ps=3.12 w=2.79 l=4.28
X4 GND.t150 GND.t148 GND.t149 GND.t63 sky130_fd_pr__nfet_01v8 ad=0.936 pd=5.58 as=0 ps=0 w=2.4 l=3.51
X5 a_n8335_8538.t16 a_n8335_8538.t15 a_n8413_8735.t14 VDD.t96 sky130_fd_pr__pfet_01v8 ad=1.0881 pd=6.36 as=0.46035 ps=3.12 w=2.79 l=4.28
X6 VDD.t115 a_n8335_8538.t19 a_n8413_8735.t4 VDD.t114 sky130_fd_pr__pfet_01v8 ad=0.46035 pd=3.12 as=1.0881 ps=6.36 w=2.79 l=4.28
X7 VDD.t70 VDD.t68 VDD.t69 VDD.t45 sky130_fd_pr__pfet_01v8 ad=1.9812 pd=10.94 as=0 ps=0 w=5.08 l=3.15
X8 VDD.t67 VDD.t65 VDD.t66 VDD.t45 sky130_fd_pr__pfet_01v8 ad=1.9812 pd=10.94 as=0 ps=0 w=5.08 l=3.15
X9 GND.t32 CS_BIAS.t16 VOUT.t39 GND.t12 sky130_fd_pr__nfet_01v8 ad=0.936 pd=5.58 as=0.396 ps=2.73 w=2.4 l=3.51
X10 VOUT.t46 a_n5434_7417.t0 sky130_fd_pr__cap_mim_m3_1 l=9.91 w=17.88
X11 VOUT.t38 CS_BIAS.t17 GND.t34 GND.t19 sky130_fd_pr__nfet_01v8 ad=0.396 pd=2.73 as=0.396 ps=2.73 w=2.4 l=3.51
X12 a_n8413_8735.t13 a_n8335_8538.t13 a_n8335_8538.t14 VDD.t101 sky130_fd_pr__pfet_01v8 ad=0.46035 pd=3.12 as=0.46035 ps=3.12 w=2.79 l=4.28
X13 a_n8413_8735.t12 a_n8335_8538.t11 a_n8335_8538.t12 VDD.t87 sky130_fd_pr__pfet_01v8 ad=0.46035 pd=3.12 as=1.0881 ps=6.36 w=2.79 l=4.28
X14 VOUT.t47 a_n5434_7417.t0 sky130_fd_pr__cap_mim_m3_1 l=9.91 w=17.88
X15 GND.t147 GND.t145 GND.t146 GND.t52 sky130_fd_pr__nfet_01v8 ad=0.936 pd=5.58 as=0 ps=0 w=2.4 l=3.51
X16 a_n8335_8538.t4 a_n8335_8538.t3 a_n8413_8735.t11 VDD.t90 sky130_fd_pr__pfet_01v8 ad=0.46035 pd=3.12 as=0.46035 ps=3.12 w=2.79 l=4.28
X17 a_n8335_8538.t8 a_n8335_8538.t7 a_n8413_8735.t10 VDD.t97 sky130_fd_pr__pfet_01v8 ad=1.0881 pd=6.36 as=0.46035 ps=3.12 w=2.79 l=4.28
X18 GND.t14 CS_BIAS.t18 VOUT.t37 GND.t5 sky130_fd_pr__nfet_01v8 ad=0.936 pd=5.58 as=0.396 ps=2.73 w=2.4 l=3.51
X19 a_n8413_8735.t9 a_n8335_8538.t1 a_n8335_8538.t2 VDD.t93 sky130_fd_pr__pfet_01v8 ad=0.46035 pd=3.12 as=0.46035 ps=3.12 w=2.79 l=4.28
X20 VDD.t64 VDD.t62 VDD.t63 VDD.t59 sky130_fd_pr__pfet_01v8 ad=1.0881 pd=6.36 as=0 ps=0 w=2.79 l=4.28
X21 GND.t42 CS_BIAS.t19 VOUT.t36 GND.t0 sky130_fd_pr__nfet_01v8 ad=0.396 pd=2.73 as=0.396 ps=2.73 w=2.4 l=3.51
X22 VDD.t61 VDD.t58 VDD.t60 VDD.t59 sky130_fd_pr__pfet_01v8 ad=1.0881 pd=6.36 as=0 ps=0 w=2.79 l=4.28
X23 VDD.t57 VDD.t55 VDD.t56 VDD.t49 sky130_fd_pr__pfet_01v8 ad=1.0881 pd=6.36 as=0 ps=0 w=2.79 l=4.28
X24 VOUT.t35 CS_BIAS.t20 GND.t40 GND.t21 sky130_fd_pr__nfet_01v8 ad=0.396 pd=2.73 as=0.936 ps=5.58 w=2.4 l=3.51
X25 CS_BIAS.t15 CS_BIAS.t14 GND.t38 GND.t2 sky130_fd_pr__nfet_01v8 ad=0.396 pd=2.73 as=0.936 ps=5.58 w=2.4 l=3.51
X26 GND.t144 GND.t142 GND.t143 GND.t63 sky130_fd_pr__nfet_01v8 ad=0.936 pd=5.58 as=0 ps=0 w=2.4 l=3.51
X27 GND.t46 CS_BIAS.t21 VOUT.t34 GND.t12 sky130_fd_pr__nfet_01v8 ad=0.936 pd=5.58 as=0.396 ps=2.73 w=2.4 l=3.51
X28 VOUT.t33 CS_BIAS.t22 GND.t165 GND.t9 sky130_fd_pr__nfet_01v8 ad=0.396 pd=2.73 as=0.396 ps=2.73 w=2.4 l=3.51
X29 GND.t7 CS_BIAS.t23 VOUT.t32 GND.t5 sky130_fd_pr__nfet_01v8 ad=0.936 pd=5.58 as=0.396 ps=2.73 w=2.4 l=3.51
X30 GND.t141 GND.t139 GND.t140 GND.t48 sky130_fd_pr__nfet_01v8 ad=1.3104 pd=7.5 as=0 ps=0 w=3.36 l=6.01
X31 GND.t138 GND.t136 GND.t137 GND.t59 sky130_fd_pr__nfet_01v8 ad=0.936 pd=5.58 as=0 ps=0 w=2.4 l=3.51
X32 VDD.t54 VDD.t52 VDD.t53 VDD.t4 sky130_fd_pr__pfet_01v8 ad=1.0881 pd=6.36 as=0 ps=0 w=2.79 l=4.28
X33 GND.t135 GND.t133 GND.t134 GND.t77 sky130_fd_pr__nfet_01v8 ad=0.936 pd=5.58 as=0 ps=0 w=2.4 l=3.51
X34 VDD.t105 a_n8335_8538.t20 a_n8413_8735.t0 VDD.t104 sky130_fd_pr__pfet_01v8 ad=0.46035 pd=3.12 as=0.46035 ps=3.12 w=2.79 l=4.28
X35 GND.t41 CS_BIAS.t24 VOUT.t31 GND.t15 sky130_fd_pr__nfet_01v8 ad=0.396 pd=2.73 as=0.396 ps=2.73 w=2.4 l=3.51
X36 a_n8335_8538.t17 VP.t2 a_n1578_n2628.t6 GND.t164 sky130_fd_pr__nfet_01v8 ad=1.3104 pd=7.5 as=1.3104 ps=7.5 w=3.36 l=6.01
X37 GND.t132 GND.t130 GND.t131 GND.t63 sky130_fd_pr__nfet_01v8 ad=0.936 pd=5.58 as=0 ps=0 w=2.4 l=3.51
X38 GND.t17 CS_BIAS.t12 CS_BIAS.t13 GND.t12 sky130_fd_pr__nfet_01v8 ad=0.936 pd=5.58 as=0.396 ps=2.73 w=2.4 l=3.51
X39 GND.t39 CS_BIAS.t25 VOUT.t30 GND.t0 sky130_fd_pr__nfet_01v8 ad=0.396 pd=2.73 as=0.396 ps=2.73 w=2.4 l=3.51
X40 VDD.t51 VDD.t48 VDD.t50 VDD.t49 sky130_fd_pr__pfet_01v8 ad=1.0881 pd=6.36 as=0 ps=0 w=2.79 l=4.28
X41 GND.t129 GND.t127 GND.t128 GND.t77 sky130_fd_pr__nfet_01v8 ad=0.936 pd=5.58 as=0 ps=0 w=2.4 l=3.51
X42 GND.t29 CS_BIAS.t26 VOUT.t29 GND.t12 sky130_fd_pr__nfet_01v8 ad=0.936 pd=5.58 as=0.396 ps=2.73 w=2.4 l=3.51
X43 VDD.t47 VDD.t44 VDD.t46 VDD.t45 sky130_fd_pr__pfet_01v8 ad=1.9812 pd=10.94 as=0 ps=0 w=5.08 l=3.15
X44 VOUT.t28 CS_BIAS.t27 GND.t169 GND.t9 sky130_fd_pr__nfet_01v8 ad=0.396 pd=2.73 as=0.396 ps=2.73 w=2.4 l=3.51
X45 VOUT.t27 CS_BIAS.t28 GND.t24 GND.t9 sky130_fd_pr__nfet_01v8 ad=0.396 pd=2.73 as=0.396 ps=2.73 w=2.4 l=3.51
X46 GND.t167 CS_BIAS.t29 VOUT.t26 GND.t0 sky130_fd_pr__nfet_01v8 ad=0.396 pd=2.73 as=0.396 ps=2.73 w=2.4 l=3.51
X47 VDD.t113 a_n8335_8538.t21 a_n5434_7417.t10 VDD.t112 sky130_fd_pr__pfet_01v8 ad=0.46035 pd=3.12 as=1.0881 ps=6.36 w=2.79 l=4.28
X48 VOUT.t25 CS_BIAS.t30 GND.t168 GND.t19 sky130_fd_pr__nfet_01v8 ad=0.396 pd=2.73 as=0.396 ps=2.73 w=2.4 l=3.51
X49 a_n8413_8735.t7 a_n8335_8538.t22 VDD.t111 VDD.t110 sky130_fd_pr__pfet_01v8 ad=1.0881 pd=6.36 as=0.46035 ps=3.12 w=2.79 l=4.28
X50 VOUT.t24 CS_BIAS.t31 GND.t11 GND.t2 sky130_fd_pr__nfet_01v8 ad=0.396 pd=2.73 as=0.936 ps=5.58 w=2.4 l=3.51
X51 VDD.t109 a_n8335_8538.t23 a_n5434_7417.t9 VDD.t108 sky130_fd_pr__pfet_01v8 ad=0.46035 pd=3.12 as=1.0881 ps=6.36 w=2.79 l=4.28
X52 a_n5434_7417.t8 a_n8335_8538.t24 VDD.t107 VDD.t106 sky130_fd_pr__pfet_01v8 ad=0.46035 pd=3.12 as=0.46035 ps=3.12 w=2.79 l=4.28
X53 GND.t126 GND.t124 GND.t125 GND.t77 sky130_fd_pr__nfet_01v8 ad=0.936 pd=5.58 as=0 ps=0 w=2.4 l=3.51
X54 GND.t25 CS_BIAS.t32 VOUT.t23 GND.t15 sky130_fd_pr__nfet_01v8 ad=0.396 pd=2.73 as=0.396 ps=2.73 w=2.4 l=3.51
X55 VP.t0 GND.t121 GND.t123 GND.t122 sky130_fd_pr__nfet_01v8 ad=0.39 pd=2.78 as=0.165 ps=1.33 w=1 l=0.5
X56 VOUT.t41 a_n12120_6849.t10 VDD.t2 VDD.t0 sky130_fd_pr__pfet_01v8 ad=1.9812 pd=10.94 as=1.9812 ps=10.94 w=5.08 l=3.15
X57 VOUT.t43 a_n12120_6849.t11 VDD.t74 VDD.t0 sky130_fd_pr__pfet_01v8 ad=1.9812 pd=10.94 as=1.9812 ps=10.94 w=5.08 l=3.15
X58 VOUT.t48 a_n5434_7417.t0 sky130_fd_pr__cap_mim_m3_1 l=9.91 w=17.88
X59 GND.t120 GND.t118 GND.t119 GND.t52 sky130_fd_pr__nfet_01v8 ad=0.936 pd=5.58 as=0 ps=0 w=2.4 l=3.51
X60 GND.t6 CS_BIAS.t10 CS_BIAS.t11 GND.t5 sky130_fd_pr__nfet_01v8 ad=0.936 pd=5.58 as=0.396 ps=2.73 w=2.4 l=3.51
X61 GND.t117 GND.t115 GND.t116 GND.t59 sky130_fd_pr__nfet_01v8 ad=0.936 pd=5.58 as=0 ps=0 w=2.4 l=3.51
X62 VDD.t103 a_n8335_8538.t25 a_n5434_7417.t7 VDD.t102 sky130_fd_pr__pfet_01v8 ad=0.46035 pd=3.12 as=0.46035 ps=3.12 w=2.79 l=4.28
X63 VDD.t43 VDD.t41 VDD.t42 VDD.t16 sky130_fd_pr__pfet_01v8 ad=1.9812 pd=10.94 as=0 ps=0 w=5.08 l=3.15
X64 VDD.t40 VDD.t38 VDD.t39 VDD.t16 sky130_fd_pr__pfet_01v8 ad=1.9812 pd=10.94 as=0 ps=0 w=5.08 l=3.15
X65 VDD.t37 VDD.t35 VDD.t36 VDD.t20 sky130_fd_pr__pfet_01v8 ad=1.0881 pd=6.36 as=0 ps=0 w=2.79 l=4.28
X66 a_n12120_6849.t9 a_n8335_8538.t26 a_n5434_7417.t12 VDD.t101 sky130_fd_pr__pfet_01v8 ad=0.46035 pd=3.12 as=0.46035 ps=3.12 w=2.79 l=4.28
X67 a_n12120_6849.t1 VN.t2 a_n1578_n2628.t4 GND.t164 sky130_fd_pr__nfet_01v8 ad=1.3104 pd=7.5 as=1.3104 ps=7.5 w=3.36 l=6.01
X68 a_n5434_7417.t1 a_n8335_8538.t27 a_n12120_6849.t8 VDD.t100 sky130_fd_pr__pfet_01v8 ad=0.46035 pd=3.12 as=0.46035 ps=3.12 w=2.79 l=4.28
X69 GND.t166 CS_BIAS.t33 VOUT.t22 GND.t0 sky130_fd_pr__nfet_01v8 ad=0.396 pd=2.73 as=0.396 ps=2.73 w=2.4 l=3.51
X70 GND.t114 GND.t112 GND.t113 GND.t63 sky130_fd_pr__nfet_01v8 ad=0.936 pd=5.58 as=0 ps=0 w=2.4 l=3.51
X71 a_n5434_7417.t6 a_n8335_8538.t28 VDD.t99 VDD.t98 sky130_fd_pr__pfet_01v8 ad=1.0881 pd=6.36 as=0.46035 ps=3.12 w=2.79 l=4.28
X72 a_n12120_6849.t0 VN.t3 a_n1578_n2628.t0 GND.t4 sky130_fd_pr__nfet_01v8 ad=1.3104 pd=7.5 as=1.3104 ps=7.5 w=3.36 l=6.01
X73 GND.t111 GND.t109 GND.t110 GND.t52 sky130_fd_pr__nfet_01v8 ad=0.936 pd=5.58 as=0 ps=0 w=2.4 l=3.51
X74 a_n12120_6849.t7 a_n8335_8538.t29 a_n5434_7417.t15 VDD.t82 sky130_fd_pr__pfet_01v8 ad=0.46035 pd=3.12 as=1.0881 ps=6.36 w=2.79 l=4.28
X75 VDD.t34 VDD.t32 VDD.t33 VDD.t12 sky130_fd_pr__pfet_01v8 ad=1.9812 pd=10.94 as=0 ps=0 w=5.08 l=3.15
X76 VDD.t31 VDD.t29 VDD.t30 VDD.t12 sky130_fd_pr__pfet_01v8 ad=1.9812 pd=10.94 as=0 ps=0 w=5.08 l=3.15
X77 VOUT.t21 CS_BIAS.t34 GND.t3 GND.t2 sky130_fd_pr__nfet_01v8 ad=0.396 pd=2.73 as=0.936 ps=5.58 w=2.4 l=3.51
X78 VOUT.t20 CS_BIAS.t35 GND.t22 GND.t21 sky130_fd_pr__nfet_01v8 ad=0.396 pd=2.73 as=0.936 ps=5.58 w=2.4 l=3.51
X79 VOUT.t45 a_n12120_6849.t12 VDD.t77 VDD.t72 sky130_fd_pr__pfet_01v8 ad=1.9812 pd=10.94 as=1.9812 ps=10.94 w=5.08 l=3.15
X80 VOUT.t44 a_n12120_6849.t13 VDD.t76 VDD.t72 sky130_fd_pr__pfet_01v8 ad=1.9812 pd=10.94 as=1.9812 ps=10.94 w=5.08 l=3.15
X81 GND.t108 GND.t106 GND.t107 GND.t77 sky130_fd_pr__nfet_01v8 ad=0.936 pd=5.58 as=0 ps=0 w=2.4 l=3.51
X82 a_n5434_7417.t13 a_n8335_8538.t30 a_n12120_6849.t6 VDD.t97 sky130_fd_pr__pfet_01v8 ad=1.0881 pd=6.36 as=0.46035 ps=3.12 w=2.79 l=4.28
X83 GND.t105 GND.t103 GND.t104 GND.t77 sky130_fd_pr__nfet_01v8 ad=0.936 pd=5.58 as=0 ps=0 w=2.4 l=3.51
X84 a_n1578_n2628.t3 DIFFPAIR_BIAS.t6 a_n2838_n2628.t2 GND.t159 sky130_fd_pr__nfet_01v8 ad=1.7862 pd=9.94 as=1.7862 ps=9.94 w=4.58 l=5.91
X85 a_n9553_8735# a_n9553_8735# a_n9553_8735# VDD.t75 sky130_fd_pr__pfet_01v8 ad=1.0881 pd=6.36 as=2.1762 ps=12.72 w=2.79 l=4.28
X86 VDD.t28 VDD.t26 VDD.t27 VDD.t8 sky130_fd_pr__pfet_01v8 ad=1.9812 pd=10.94 as=0 ps=0 w=5.08 l=3.15
X87 VDD.t25 VDD.t23 VDD.t24 VDD.t8 sky130_fd_pr__pfet_01v8 ad=1.9812 pd=10.94 as=0 ps=0 w=5.08 l=3.15
X88 VOUT.t19 CS_BIAS.t36 GND.t18 GND.t2 sky130_fd_pr__nfet_01v8 ad=0.396 pd=2.73 as=0.936 ps=5.58 w=2.4 l=3.51
X89 GND.t102 GND.t100 GND.t101 GND.t52 sky130_fd_pr__nfet_01v8 ad=0.936 pd=5.58 as=0 ps=0 w=2.4 l=3.51
X90 GND.t99 GND.t97 GND.t98 GND.t63 sky130_fd_pr__nfet_01v8 ad=0.936 pd=5.58 as=0 ps=0 w=2.4 l=3.51
X91 VDD.t22 VDD.t19 VDD.t21 VDD.t20 sky130_fd_pr__pfet_01v8 ad=1.0881 pd=6.36 as=0 ps=0 w=2.79 l=4.28
X92 GND.t96 GND.t94 GND.t95 GND.t59 sky130_fd_pr__nfet_01v8 ad=0.936 pd=5.58 as=0 ps=0 w=2.4 l=3.51
X93 a_n5434_7417.t2 a_n8335_8538.t31 a_n12120_6849.t5 VDD.t96 sky130_fd_pr__pfet_01v8 ad=1.0881 pd=6.36 as=0.46035 ps=3.12 w=2.79 l=4.28
X94 GND.t163 CS_BIAS.t37 VOUT.t18 GND.t0 sky130_fd_pr__nfet_01v8 ad=0.396 pd=2.73 as=0.396 ps=2.73 w=2.4 l=3.51
X95 VN.t1 GND.t91 GND.t93 GND.t92 sky130_fd_pr__nfet_01v8 ad=0.39 pd=2.78 as=0.165 ps=1.33 w=1 l=0.5
X96 VOUT.t40 a_n12120_6849.t14 VDD.t1 VDD.t0 sky130_fd_pr__pfet_01v8 ad=1.9812 pd=10.94 as=1.9812 ps=10.94 w=5.08 l=3.15
X97 VDD.t95 a_n8335_8538.t32 a_n8413_8735.t5 VDD.t94 sky130_fd_pr__pfet_01v8 ad=0.46035 pd=3.12 as=0.46035 ps=3.12 w=2.79 l=4.28
X98 GND.t1 CS_BIAS.t8 CS_BIAS.t9 GND.t0 sky130_fd_pr__nfet_01v8 ad=0.396 pd=2.73 as=0.396 ps=2.73 w=2.4 l=3.51
X99 GND.t90 GND.t87 GND.t89 GND.t88 sky130_fd_pr__nfet_01v8 ad=1.7862 pd=9.94 as=0 ps=0 w=4.58 l=5.91
X100 VOUT.t17 CS_BIAS.t38 GND.t170 GND.t9 sky130_fd_pr__nfet_01v8 ad=0.396 pd=2.73 as=0.396 ps=2.73 w=2.4 l=3.51
X101 VOUT.t16 CS_BIAS.t39 GND.t173 GND.t21 sky130_fd_pr__nfet_01v8 ad=0.396 pd=2.73 as=0.936 ps=5.58 w=2.4 l=3.51
X102 VDD.t18 VDD.t15 VDD.t17 VDD.t16 sky130_fd_pr__pfet_01v8 ad=1.9812 pd=10.94 as=0 ps=0 w=5.08 l=3.15
X103 a_n8335_8538.t0 VP.t3 a_n1578_n2628.t5 GND.t4 sky130_fd_pr__nfet_01v8 ad=1.3104 pd=7.5 as=1.3104 ps=7.5 w=3.36 l=6.01
X104 a_n12120_6849.t4 a_n8335_8538.t33 a_n5434_7417.t16 VDD.t93 sky130_fd_pr__pfet_01v8 ad=0.46035 pd=3.12 as=0.46035 ps=3.12 w=2.79 l=4.28
X105 GND.t35 CS_BIAS.t40 VOUT.t15 GND.t5 sky130_fd_pr__nfet_01v8 ad=0.936 pd=5.58 as=0.396 ps=2.73 w=2.4 l=3.51
X106 a_8541_8735# a_8541_8735# a_8541_8735# VDD.t71 sky130_fd_pr__pfet_01v8 ad=1.0881 pd=6.36 as=2.1762 ps=12.72 w=2.79 l=4.28
X107 DIFFPAIR_BIAS.t1 DIFFPAIR_BIAS.t0 a_n4284_n2628.t2 GND.t162 sky130_fd_pr__nfet_01v8 ad=1.7862 pd=9.94 as=1.7862 ps=9.94 w=4.58 l=5.91
X108 VOUT.t14 CS_BIAS.t41 GND.t36 GND.t9 sky130_fd_pr__nfet_01v8 ad=0.396 pd=2.73 as=0.396 ps=2.73 w=2.4 l=3.51
X109 a_n8413_8735.t3 a_n8335_8538.t34 VDD.t92 VDD.t91 sky130_fd_pr__pfet_01v8 ad=0.46035 pd=3.12 as=0.46035 ps=3.12 w=2.79 l=4.28
X110 GND.t16 CS_BIAS.t42 VOUT.t13 GND.t15 sky130_fd_pr__nfet_01v8 ad=0.396 pd=2.73 as=0.396 ps=2.73 w=2.4 l=3.51
X111 a_n5434_7417.t14 a_n8335_8538.t35 a_n12120_6849.t3 VDD.t90 sky130_fd_pr__pfet_01v8 ad=0.46035 pd=3.12 as=0.46035 ps=3.12 w=2.79 l=4.28
X112 VDD.t14 VDD.t11 VDD.t13 VDD.t12 sky130_fd_pr__pfet_01v8 ad=1.9812 pd=10.94 as=0 ps=0 w=5.08 l=3.15
X113 VOUT.t12 CS_BIAS.t43 GND.t28 GND.t19 sky130_fd_pr__nfet_01v8 ad=0.396 pd=2.73 as=0.396 ps=2.73 w=2.4 l=3.51
X114 DIFFPAIR_BIAS.t3 DIFFPAIR_BIAS.t2 a_n4284_n2628.t1 GND.t161 sky130_fd_pr__nfet_01v8 ad=1.7862 pd=9.94 as=1.7862 ps=9.94 w=4.58 l=5.91
X115 VOUT.t11 CS_BIAS.t44 GND.t31 GND.t21 sky130_fd_pr__nfet_01v8 ad=0.396 pd=2.73 as=0.936 ps=5.58 w=2.4 l=3.51
X116 GND.t13 CS_BIAS.t45 VOUT.t10 GND.t12 sky130_fd_pr__nfet_01v8 ad=0.936 pd=5.58 as=0.396 ps=2.73 w=2.4 l=3.51
X117 VDD.t89 a_n8335_8538.t36 a_n8413_8735.t2 VDD.t88 sky130_fd_pr__pfet_01v8 ad=0.46035 pd=3.12 as=1.0881 ps=6.36 w=2.79 l=4.28
X118 VOUT.t42 a_n12120_6849.t15 VDD.t73 VDD.t72 sky130_fd_pr__pfet_01v8 ad=1.9812 pd=10.94 as=1.9812 ps=10.94 w=5.08 l=3.15
X119 a_n12120_6849.t2 a_n8335_8538.t37 a_n5434_7417.t3 VDD.t87 sky130_fd_pr__pfet_01v8 ad=0.46035 pd=3.12 as=1.0881 ps=6.36 w=2.79 l=4.28
X120 GND.t86 GND.t84 GND.t85 GND.t59 sky130_fd_pr__nfet_01v8 ad=0.936 pd=5.58 as=0 ps=0 w=2.4 l=3.51
X121 GND.t83 GND.t80 GND.t82 GND.t81 sky130_fd_pr__nfet_01v8 ad=1.7862 pd=9.94 as=0 ps=0 w=4.58 l=5.91
X122 VDD.t10 VDD.t7 VDD.t9 VDD.t8 sky130_fd_pr__pfet_01v8 ad=1.9812 pd=10.94 as=0 ps=0 w=5.08 l=3.15
X123 VOUT.t49 a_n5434_7417.t0 sky130_fd_pr__cap_mim_m3_1 l=9.91 w=17.88
X124 GND.t26 CS_BIAS.t46 VOUT.t9 GND.t5 sky130_fd_pr__nfet_01v8 ad=0.936 pd=5.58 as=0.396 ps=2.73 w=2.4 l=3.51
X125 VOUT.t8 CS_BIAS.t47 GND.t8 GND.t2 sky130_fd_pr__nfet_01v8 ad=0.396 pd=2.73 as=0.936 ps=5.58 w=2.4 l=3.51
X126 GND.t43 CS_BIAS.t48 VOUT.t7 GND.t15 sky130_fd_pr__nfet_01v8 ad=0.396 pd=2.73 as=0.396 ps=2.73 w=2.4 l=3.51
X127 GND.t23 CS_BIAS.t49 VOUT.t6 GND.t15 sky130_fd_pr__nfet_01v8 ad=0.396 pd=2.73 as=0.396 ps=2.73 w=2.4 l=3.51
X128 GND.t79 GND.t76 GND.t78 GND.t77 sky130_fd_pr__nfet_01v8 ad=0.936 pd=5.58 as=0 ps=0 w=2.4 l=3.51
X129 GND.t27 CS_BIAS.t50 VOUT.t5 GND.t5 sky130_fd_pr__nfet_01v8 ad=0.936 pd=5.58 as=0.396 ps=2.73 w=2.4 l=3.51
X130 GND.t75 GND.t72 GND.t74 GND.t73 sky130_fd_pr__nfet_01v8 ad=1.3104 pd=7.5 as=0 ps=0 w=3.36 l=6.01
X131 GND.t171 CS_BIAS.t51 VOUT.t4 GND.t12 sky130_fd_pr__nfet_01v8 ad=0.936 pd=5.58 as=0.396 ps=2.73 w=2.4 l=3.51
X132 GND.t71 GND.t69 VN.t0 GND.t70 sky130_fd_pr__nfet_01v8 ad=0.165 pd=1.33 as=0.39 ps=2.78 w=1 l=0.5
X133 a_n5434_7417.t5 a_n8335_8538.t38 VDD.t86 VDD.t85 sky130_fd_pr__pfet_01v8 ad=1.0881 pd=6.36 as=0.46035 ps=3.12 w=2.79 l=4.28
X134 a_n1578_n2628.t2 DIFFPAIR_BIAS.t7 a_n2838_n2628.t1 GND.t158 sky130_fd_pr__nfet_01v8 ad=1.7862 pd=9.94 as=1.7862 ps=9.94 w=4.58 l=5.91
X135 VOUT.t3 CS_BIAS.t52 GND.t30 GND.t19 sky130_fd_pr__nfet_01v8 ad=0.396 pd=2.73 as=0.396 ps=2.73 w=2.4 l=3.51
X136 CS_BIAS.t7 CS_BIAS.t6 GND.t10 GND.t9 sky130_fd_pr__nfet_01v8 ad=0.396 pd=2.73 as=0.396 ps=2.73 w=2.4 l=3.51
X137 GND.t68 GND.t66 GND.t67 GND.t59 sky130_fd_pr__nfet_01v8 ad=0.936 pd=5.58 as=0 ps=0 w=2.4 l=3.51
X138 CS_BIAS.t5 CS_BIAS.t4 GND.t33 GND.t19 sky130_fd_pr__nfet_01v8 ad=0.396 pd=2.73 as=0.396 ps=2.73 w=2.4 l=3.51
X139 CS_BIAS.t3 CS_BIAS.t2 GND.t44 GND.t21 sky130_fd_pr__nfet_01v8 ad=0.396 pd=2.73 as=0.936 ps=5.58 w=2.4 l=3.51
X140 GND.t65 GND.t62 GND.t64 GND.t63 sky130_fd_pr__nfet_01v8 ad=0.936 pd=5.58 as=0 ps=0 w=2.4 l=3.51
X141 a_n8413_8735.t1 a_n8335_8538.t39 VDD.t84 VDD.t83 sky130_fd_pr__pfet_01v8 ad=1.0881 pd=6.36 as=0.46035 ps=3.12 w=2.79 l=4.28
X142 a_n1578_n2628.t1 DIFFPAIR_BIAS.t8 a_n2838_n2628.t0 GND.t157 sky130_fd_pr__nfet_01v8 ad=1.7862 pd=9.94 as=1.7862 ps=9.94 w=4.58 l=5.91
X143 GND.t61 GND.t58 GND.t60 GND.t59 sky130_fd_pr__nfet_01v8 ad=0.936 pd=5.58 as=0 ps=0 w=2.4 l=3.51
X144 VOUT.t2 CS_BIAS.t53 GND.t45 GND.t2 sky130_fd_pr__nfet_01v8 ad=0.396 pd=2.73 as=0.936 ps=5.58 w=2.4 l=3.51
X145 GND.t57 GND.t55 GND.t56 GND.t52 sky130_fd_pr__nfet_01v8 ad=0.936 pd=5.58 as=0 ps=0 w=2.4 l=3.51
X146 GND.t54 GND.t51 GND.t53 GND.t52 sky130_fd_pr__nfet_01v8 ad=0.936 pd=5.58 as=0 ps=0 w=2.4 l=3.51
X147 VOUT.t1 CS_BIAS.t54 GND.t20 GND.t19 sky130_fd_pr__nfet_01v8 ad=0.396 pd=2.73 as=0.396 ps=2.73 w=2.4 l=3.51
X148 a_n8413_8735.t8 a_n8335_8538.t9 a_n8335_8538.t10 VDD.t82 sky130_fd_pr__pfet_01v8 ad=0.46035 pd=3.12 as=1.0881 ps=6.36 w=2.79 l=4.28
X149 GND.t50 GND.t47 GND.t49 GND.t48 sky130_fd_pr__nfet_01v8 ad=1.3104 pd=7.5 as=0 ps=0 w=3.36 l=6.01
X150 DIFFPAIR_BIAS.t5 DIFFPAIR_BIAS.t4 a_n4284_n2628.t0 GND.t160 sky130_fd_pr__nfet_01v8 ad=1.7862 pd=9.94 as=1.7862 ps=9.94 w=4.58 l=5.91
X151 GND.t37 CS_BIAS.t0 CS_BIAS.t1 GND.t15 sky130_fd_pr__nfet_01v8 ad=0.396 pd=2.73 as=0.396 ps=2.73 w=2.4 l=3.51
X152 VOUT.t0 CS_BIAS.t55 GND.t172 GND.t21 sky130_fd_pr__nfet_01v8 ad=0.396 pd=2.73 as=0.936 ps=5.58 w=2.4 l=3.51
X153 VDD.t6 VDD.t3 VDD.t5 VDD.t4 sky130_fd_pr__pfet_01v8 ad=1.0881 pd=6.36 as=0 ps=0 w=2.79 l=4.28
X154 a_n5434_7417.t4 a_n8335_8538.t40 VDD.t81 VDD.t80 sky130_fd_pr__pfet_01v8 ad=0.46035 pd=3.12 as=0.46035 ps=3.12 w=2.79 l=4.28
X155 a_n8413_8735.t6 a_n8335_8538.t41 VDD.t79 VDD.t78 sky130_fd_pr__pfet_01v8 ad=0.46035 pd=3.12 as=0.46035 ps=3.12 w=2.79 l=4.28
R0 a_n8335_8538.n8 a_n8335_8538.t16 137.597
R1 a_n8335_8538.n7 a_n8335_8538.t10 137.597
R2 a_n8335_8538.n7 a_n8335_8538.t8 133.624
R3 a_n8335_8538.n8 a_n8335_8538.t12 133.624
R4 a_n8335_8538.n7 a_n8335_8538.t14 121.974
R5 a_n8335_8538.t4 a_n8335_8538.n8 121.974
R6 a_n8335_8538.n10 a_n8335_8538.t17 164.629
R7 a_n8335_8538.n10 a_n8335_8538.t0 128.333
R8 a_n8335_8538.n0 a_n8335_8538.n10 25.3229
R9 a_n8335_8538.n6 a_n8335_8538.n5 4.17479
R10 a_n8335_8538.n4 a_n8335_8538.n3 4.17479
R11 a_n8335_8538.n0 a_n8335_8538.t31 47.7962
R12 a_n8335_8538.n0 a_n8335_8538.t33 45.3884
R13 a_n8335_8538.n0 a_n8335_8538.t35 50.0379
R14 a_n8335_8538.n0 a_n8335_8538.t37 48.5131
R15 a_n8335_8538.n0 a_n8335_8538.t7 47.7962
R16 a_n8335_8538.n0 a_n8335_8538.t13 45.4802
R17 a_n8335_8538.n0 a_n8335_8538.t5 49.8889
R18 a_n8335_8538.n0 a_n8335_8538.t9 48.5131
R19 a_n8335_8538.n5 a_n8335_8538.t15 47.7962
R20 a_n8335_8538.n6 a_n8335_8538.t1 45.1247
R21 a_n8335_8538.n6 a_n8335_8538.t3 50.5896
R22 a_n8335_8538.n5 a_n8335_8538.t11 48.5131
R23 a_n8335_8538.n3 a_n8335_8538.t30 47.7962
R24 a_n8335_8538.n4 a_n8335_8538.t26 45.1247
R25 a_n8335_8538.n4 a_n8335_8538.t27 50.5896
R26 a_n8335_8538.n3 a_n8335_8538.t29 48.5131
R27 a_n8335_8538.n2 a_n8335_8538.t39 47.7962
R28 a_n8335_8538.n2 a_n8335_8538.t20 50.055
R29 a_n8335_8538.n2 a_n8335_8538.t41 45.3153
R30 a_n8335_8538.n2 a_n8335_8538.t19 48.5131
R31 a_n8335_8538.n2 a_n8335_8538.t22 47.7962
R32 a_n8335_8538.n2 a_n8335_8538.t32 45.6221
R33 a_n8335_8538.n2 a_n8335_8538.t34 45.9309
R34 a_n8335_8538.n2 a_n8335_8538.t36 51.2945
R35 a_n8335_8538.n2 a_n8335_8538.t38 47.7962
R36 a_n8335_8538.n2 a_n8335_8538.t18 46.1614
R37 a_n8335_8538.n2 a_n8335_8538.t40 45.6975
R38 a_n8335_8538.n2 a_n8335_8538.t23 51.3208
R39 a_n8335_8538.n2 a_n8335_8538.t28 47.7962
R40 a_n8335_8538.n2 a_n8335_8538.t25 45.9354
R41 a_n8335_8538.n2 a_n8335_8538.t24 48.9242
R42 a_n8335_8538.n2 a_n8335_8538.t21 48.4558
R43 a_n8335_8538.n9 a_n8335_8538.n0 29.1706
R44 a_n8335_8538.n2 a_n8335_8538.n1 24.3765
R45 a_n8335_8538.n9 a_n8335_8538.n2 22.144
R46 a_n8335_8538.n0 a_n8335_8538.n1 15.5174
R47 a_n8335_8538.n3 a_n8335_8538.n9 15.5022
R48 a_n8335_8538.n1 a_n8335_8538.n5 13.0591
R49 a_n8335_8538.t14 a_n8335_8538.t6 11.651
R50 a_n8335_8538.t2 a_n8335_8538.t4 11.651
R51 a_n8335_8538.n5 a_n8335_8538.n3 7.67445
R52 a_n8335_8538.n8 a_n8335_8538.n1 18.934
R53 a_n8335_8538.n9 a_n8335_8538.n7 17.5048
R54 a_n8413_8735.n12 a_n8413_8735.n11 142.626
R55 a_n8413_8735.n3 a_n8413_8735.n1 140.024
R56 a_n8413_8735.n3 a_n8413_8735.n2 138.653
R57 a_n8413_8735.n11 a_n8413_8735.n10 138.651
R58 a_n8413_8735.n5 a_n8413_8735.t7 137.597
R59 a_n8413_8735.n8 a_n8413_8735.t4 133.624
R60 a_n8413_8735.n0 a_n8413_8735.t1 133.624
R61 a_n8413_8735.n0 a_n8413_8735.t2 133.624
R62 a_n8413_8735.n7 a_n8413_8735.n6 121.974
R63 a_n8413_8735.n5 a_n8413_8735.n4 121.974
R64 a_n8413_8735.n9 a_n8413_8735.n3 31.9198
R65 a_n8413_8735.n11 a_n8413_8735.n9 18.4285
R66 a_n8413_8735.n10 a_n8413_8735.t11 11.651
R67 a_n8413_8735.n10 a_n8413_8735.t12 11.651
R68 a_n8413_8735.n6 a_n8413_8735.t0 11.651
R69 a_n8413_8735.n6 a_n8413_8735.t6 11.651
R70 a_n8413_8735.n4 a_n8413_8735.t5 11.651
R71 a_n8413_8735.n4 a_n8413_8735.t3 11.651
R72 a_n8413_8735.n2 a_n8413_8735.t15 11.651
R73 a_n8413_8735.n2 a_n8413_8735.t8 11.651
R74 a_n8413_8735.n1 a_n8413_8735.t10 11.651
R75 a_n8413_8735.n1 a_n8413_8735.t13 11.651
R76 a_n8413_8735.t14 a_n8413_8735.n12 11.651
R77 a_n8413_8735.n12 a_n8413_8735.t9 11.651
R78 a_n8413_8735.n9 a_n8413_8735.n8 7.46817
R79 a_n8413_8735.n7 a_n8413_8735.n0 4.99188
R80 a_n8413_8735.n0 a_n8413_8735.n5 3.97464
R81 a_n8413_8735.n8 a_n8413_8735.n7 3.97464
R82 VDD.n2679 VDD.n59 447.805
R83 VDD.n2951 VDD.n2768 447.805
R84 VDD.n2860 VDD.n2770 447.805
R85 VDD.n2683 VDD.n61 447.805
R86 VDD.n1333 VDD.n973 447.805
R87 VDD.n1336 VDD.n1335 447.805
R88 VDD.n1207 VDD.n1050 447.805
R89 VDD.n1209 VDD.n1048 447.805
R90 VDD.n2566 VDD.n141 289.757
R91 VDD.n2541 VDD.n156 289.757
R92 VDD.n2218 VDD.n2217 289.757
R93 VDD.n2245 VDD.n417 289.757
R94 VDD.n1908 VDD.n440 289.757
R95 VDD.n1880 VDD.n1879 289.757
R96 VDD.n1539 VDD.n1538 289.757
R97 VDD.n1566 VDD.n721 289.757
R98 VDD.n2519 VDD.n2518 289.757
R99 VDD.n2576 VDD.n133 289.757
R100 VDD.n2082 VDD.n1923 289.757
R101 VDD.n2249 VDD.n421 289.757
R102 VDD.n1865 VDD.n1864 289.757
R103 VDD.n1833 VDD.n432 289.757
R104 VDD.n933 VDD.n737 289.757
R105 VDD.n791 VDD.n717 289.757
R106 VDD.n745 VDD.t71 254.689
R107 VDD.n2681 VDD.t75 254.689
R108 VDD.n1052 VDD.t65 247.615
R109 VDD.n1069 VDD.t68 247.615
R110 VDD.n1086 VDD.t44 247.615
R111 VDD.n1338 VDD.t38 247.615
R112 VDD.n776 VDD.t41 247.615
R113 VDD.n750 VDD.t15 247.615
R114 VDD.n2862 VDD.t29 247.615
R115 VDD.n2822 VDD.t32 247.615
R116 VDD.n2805 VDD.t11 247.615
R117 VDD.n115 VDD.t23 247.615
R118 VDD.n2655 VDD.t7 247.615
R119 VDD.n64 VDD.t26 247.615
R120 VDD.n806 VDD.t22 231.37
R121 VDD.n461 VDD.t56 231.37
R122 VDD.n1403 VDD.t37 231.37
R123 VDD.n443 VDD.t50 231.37
R124 VDD.n1924 VDD.t64 231.37
R125 VDD.n151 VDD.t5 231.37
R126 VDD.n2085 VDD.t61 231.37
R127 VDD.n128 VDD.t53 231.37
R128 VDD.n806 VDD.t19 225.387
R129 VDD.n461 VDD.t55 225.387
R130 VDD.n1403 VDD.t35 225.387
R131 VDD.n443 VDD.t48 225.387
R132 VDD.n1924 VDD.t62 225.387
R133 VDD.n151 VDD.t3 225.387
R134 VDD.n2085 VDD.t58 225.387
R135 VDD.n128 VDD.t52 225.387
R136 VDD.t71 VDD.t98 222.656
R137 VDD.t114 VDD.t75 222.656
R138 VDD.n1052 VDD.t67 188.109
R139 VDD.n1069 VDD.t70 188.109
R140 VDD.n1086 VDD.t47 188.109
R141 VDD.n1338 VDD.t39 188.109
R142 VDD.n776 VDD.t42 188.109
R143 VDD.n750 VDD.t17 188.109
R144 VDD.n2862 VDD.t30 188.109
R145 VDD.n2822 VDD.t33 188.109
R146 VDD.n2805 VDD.t13 188.109
R147 VDD.n115 VDD.t25 188.109
R148 VDD.n2655 VDD.t10 188.109
R149 VDD.n64 VDD.t28 188.109
R150 VDD.n2520 VDD.n2519 185
R151 VDD.n2519 VDD.n138 185
R152 VDD.n2521 VDD.n139 185
R153 VDD.n2571 VDD.n139 185
R154 VDD.n2523 VDD.n2522 185
R155 VDD.n2522 VDD.n136 185
R156 VDD.n2524 VDD.n161 185
R157 VDD.n2534 VDD.n161 185
R158 VDD.n2525 VDD.n169 185
R159 VDD.n169 VDD.n159 185
R160 VDD.n2527 VDD.n2526 185
R161 VDD.n2528 VDD.n2527 185
R162 VDD.n2503 VDD.n168 185
R163 VDD.n168 VDD.n165 185
R164 VDD.n2502 VDD.n2501 185
R165 VDD.n2501 VDD.n2500 185
R166 VDD.n171 VDD.n170 185
R167 VDD.n180 VDD.n171 185
R168 VDD.n2493 VDD.n2492 185
R169 VDD.n2494 VDD.n2493 185
R170 VDD.n2491 VDD.n181 185
R171 VDD.n181 VDD.n177 185
R172 VDD.n2490 VDD.n2489 185
R173 VDD.n2489 VDD.n2488 185
R174 VDD.n183 VDD.n182 185
R175 VDD.n184 VDD.n183 185
R176 VDD.n2481 VDD.n2480 185
R177 VDD.n2482 VDD.n2481 185
R178 VDD.n2479 VDD.n193 185
R179 VDD.n193 VDD.n190 185
R180 VDD.n2478 VDD.n2477 185
R181 VDD.n2477 VDD.n2476 185
R182 VDD.n195 VDD.n194 185
R183 VDD.n196 VDD.n195 185
R184 VDD.n2469 VDD.n2468 185
R185 VDD.n2470 VDD.n2469 185
R186 VDD.n2467 VDD.n205 185
R187 VDD.n205 VDD.n202 185
R188 VDD.n2466 VDD.n2465 185
R189 VDD.n2465 VDD.n2464 185
R190 VDD.n207 VDD.n206 185
R191 VDD.n208 VDD.n207 185
R192 VDD.n2457 VDD.n2456 185
R193 VDD.n2458 VDD.n2457 185
R194 VDD.n2455 VDD.n216 185
R195 VDD.n222 VDD.n216 185
R196 VDD.n2454 VDD.n2453 185
R197 VDD.n2453 VDD.n2452 185
R198 VDD.n218 VDD.n217 185
R199 VDD.n219 VDD.n218 185
R200 VDD.n2445 VDD.n2444 185
R201 VDD.n2446 VDD.n2445 185
R202 VDD.n2443 VDD.n229 185
R203 VDD.n229 VDD.n226 185
R204 VDD.n2442 VDD.n2441 185
R205 VDD.n2441 VDD.n2440 185
R206 VDD.n231 VDD.n230 185
R207 VDD.n232 VDD.n231 185
R208 VDD.n2433 VDD.n2432 185
R209 VDD.n2434 VDD.n2433 185
R210 VDD.n2431 VDD.n241 185
R211 VDD.n241 VDD.n238 185
R212 VDD.n2430 VDD.n2429 185
R213 VDD.n2429 VDD.n2428 185
R214 VDD.n243 VDD.n242 185
R215 VDD.n244 VDD.n243 185
R216 VDD.n2421 VDD.n2420 185
R217 VDD.n2422 VDD.n2421 185
R218 VDD.n2419 VDD.n253 185
R219 VDD.n253 VDD.n250 185
R220 VDD.n2418 VDD.n2417 185
R221 VDD.n2417 VDD.n2416 185
R222 VDD.n255 VDD.n254 185
R223 VDD.n256 VDD.n255 185
R224 VDD.n2409 VDD.n2408 185
R225 VDD.n2410 VDD.n2409 185
R226 VDD.n2407 VDD.n265 185
R227 VDD.n265 VDD.n262 185
R228 VDD.n2406 VDD.n2405 185
R229 VDD.n2405 VDD.n2404 185
R230 VDD.n267 VDD.n266 185
R231 VDD.n268 VDD.n267 185
R232 VDD.n2397 VDD.n2396 185
R233 VDD.n2398 VDD.n2397 185
R234 VDD.n2395 VDD.n277 185
R235 VDD.n277 VDD.n274 185
R236 VDD.n2394 VDD.n2393 185
R237 VDD.n2393 VDD.n2392 185
R238 VDD.n279 VDD.n278 185
R239 VDD.n280 VDD.n279 185
R240 VDD.n2385 VDD.n2384 185
R241 VDD.n2386 VDD.n2385 185
R242 VDD.n2383 VDD.n289 185
R243 VDD.n289 VDD.n286 185
R244 VDD.n2382 VDD.n2381 185
R245 VDD.n2381 VDD.n2380 185
R246 VDD.n291 VDD.n290 185
R247 VDD.n292 VDD.n291 185
R248 VDD.n2373 VDD.n2372 185
R249 VDD.n2374 VDD.n2373 185
R250 VDD.n2371 VDD.n301 185
R251 VDD.n301 VDD.n298 185
R252 VDD.n2370 VDD.n2369 185
R253 VDD.n2369 VDD.n2368 185
R254 VDD.n303 VDD.n302 185
R255 VDD.n312 VDD.n303 185
R256 VDD.n2361 VDD.n2360 185
R257 VDD.n2362 VDD.n2361 185
R258 VDD.n2359 VDD.n313 185
R259 VDD.n313 VDD.n309 185
R260 VDD.n2358 VDD.n2357 185
R261 VDD.n2357 VDD.n2356 185
R262 VDD.n315 VDD.n314 185
R263 VDD.n324 VDD.n315 185
R264 VDD.n2349 VDD.n2348 185
R265 VDD.n2350 VDD.n2349 185
R266 VDD.n2347 VDD.n325 185
R267 VDD.n325 VDD.n321 185
R268 VDD.n2346 VDD.n2345 185
R269 VDD.n2345 VDD.n2344 185
R270 VDD.n327 VDD.n326 185
R271 VDD.n328 VDD.n327 185
R272 VDD.n2337 VDD.n2336 185
R273 VDD.n2338 VDD.n2337 185
R274 VDD.n2335 VDD.n337 185
R275 VDD.n337 VDD.n334 185
R276 VDD.n2334 VDD.n2333 185
R277 VDD.n2333 VDD.n2332 185
R278 VDD.n339 VDD.n338 185
R279 VDD.n340 VDD.n339 185
R280 VDD.n2325 VDD.n2324 185
R281 VDD.n2326 VDD.n2325 185
R282 VDD.n2323 VDD.n348 185
R283 VDD.n354 VDD.n348 185
R284 VDD.n2322 VDD.n2321 185
R285 VDD.n2321 VDD.n2320 185
R286 VDD.n350 VDD.n349 185
R287 VDD.n351 VDD.n350 185
R288 VDD.n2313 VDD.n2312 185
R289 VDD.n2314 VDD.n2313 185
R290 VDD.n2311 VDD.n360 185
R291 VDD.n366 VDD.n360 185
R292 VDD.n2310 VDD.n2309 185
R293 VDD.n2309 VDD.n2308 185
R294 VDD.n362 VDD.n361 185
R295 VDD.n363 VDD.n362 185
R296 VDD.n2301 VDD.n2300 185
R297 VDD.n2302 VDD.n2301 185
R298 VDD.n2299 VDD.n373 185
R299 VDD.n373 VDD.n370 185
R300 VDD.n2298 VDD.n2297 185
R301 VDD.n2297 VDD.n2296 185
R302 VDD.n375 VDD.n374 185
R303 VDD.n376 VDD.n375 185
R304 VDD.n2289 VDD.n2288 185
R305 VDD.n2290 VDD.n2289 185
R306 VDD.n2287 VDD.n385 185
R307 VDD.n385 VDD.n382 185
R308 VDD.n2286 VDD.n2285 185
R309 VDD.n2285 VDD.n2284 185
R310 VDD.n387 VDD.n386 185
R311 VDD.n388 VDD.n387 185
R312 VDD.n2277 VDD.n2276 185
R313 VDD.n2278 VDD.n2277 185
R314 VDD.n2275 VDD.n397 185
R315 VDD.n397 VDD.n394 185
R316 VDD.n2274 VDD.n2273 185
R317 VDD.n2273 VDD.n2272 185
R318 VDD.n399 VDD.n398 185
R319 VDD.n400 VDD.n399 185
R320 VDD.n2265 VDD.n2264 185
R321 VDD.n2266 VDD.n2265 185
R322 VDD.n2263 VDD.n409 185
R323 VDD.n409 VDD.n406 185
R324 VDD.n2262 VDD.n2261 185
R325 VDD.n2261 VDD.n2260 185
R326 VDD.n411 VDD.n410 185
R327 VDD.n412 VDD.n411 185
R328 VDD.n2253 VDD.n2252 185
R329 VDD.n2254 VDD.n2253 185
R330 VDD.n2251 VDD.n421 185
R331 VDD.n421 VDD.n418 185
R332 VDD.n2250 VDD.n2249 185
R333 VDD.n423 VDD.n422 185
R334 VDD.n1927 VDD.n1926 185
R335 VDD.n1929 VDD.n1928 185
R336 VDD.n1931 VDD.n1930 185
R337 VDD.n1933 VDD.n1932 185
R338 VDD.n1935 VDD.n1934 185
R339 VDD.n1937 VDD.n1936 185
R340 VDD.n1939 VDD.n1938 185
R341 VDD.n1941 VDD.n1940 185
R342 VDD.n1943 VDD.n1942 185
R343 VDD.n1945 VDD.n1944 185
R344 VDD.n1947 VDD.n1946 185
R345 VDD.n1949 VDD.n1922 185
R346 VDD.n2082 VDD.n2081 185
R347 VDD.n2247 VDD.n2082 185
R348 VDD.n2576 VDD.n2575 185
R349 VDD.n2578 VDD.n132 185
R350 VDD.n2580 VDD.n2579 185
R351 VDD.n2581 VDD.n127 185
R352 VDD.n2583 VDD.n2582 185
R353 VDD.n2585 VDD.n126 185
R354 VDD.n2586 VDD.n123 185
R355 VDD.n2589 VDD.n2588 185
R356 VDD.n124 VDD.n122 185
R357 VDD.n2510 VDD.n2507 185
R358 VDD.n2512 VDD.n2511 185
R359 VDD.n2513 VDD.n2506 185
R360 VDD.n2515 VDD.n2514 185
R361 VDD.n2517 VDD.n2505 185
R362 VDD.n2518 VDD.n2504 185
R363 VDD.n2518 VDD.n125 185
R364 VDD.n2574 VDD.n133 185
R365 VDD.n138 VDD.n133 185
R366 VDD.n2573 VDD.n2572 185
R367 VDD.n2572 VDD.n2571 185
R368 VDD.n135 VDD.n134 185
R369 VDD.n136 VDD.n135 185
R370 VDD.n1950 VDD.n160 185
R371 VDD.n2534 VDD.n160 185
R372 VDD.n1952 VDD.n1951 185
R373 VDD.n1951 VDD.n159 185
R374 VDD.n1953 VDD.n167 185