* NGSPICE file created from opamp_sample_0008.ext - technology: sky130A

.subckt opamp_sample_0008 GND VOUT VDD VN VP CS_BIAS DIFFPAIR_BIAS
X0 VDD.t128 VDD.t126 VDD.t127 VDD.t120 sky130_fd_pr__pfet_01v8 ad=1.599 pd=8.98 as=0 ps=0 w=4.1 l=3.9
X1 VOUT.t41 CS_BIAS.t24 GND.t79 GND.t65 sky130_fd_pr__nfet_01v8 ad=0.6204 pd=4.09 as=0.6204 ps=4.09 w=3.76 l=5.93
X2 GND.t78 CS_BIAS.t25 VOUT.t40 GND.t53 sky130_fd_pr__nfet_01v8 ad=1.4664 pd=8.3 as=0.6204 ps=4.09 w=3.76 l=5.93
X3 a_n6364_n172.t22 VN.t5 a_n18960_7900.t17 GND.t3 sky130_fd_pr__nfet_01v8 ad=0.5478 pd=3.65 as=0.5478 ps=3.65 w=3.32 l=5.88
X4 a_n7729_8946.t17 a_n7651_8750.t30 VDD.t137 VDD.t136 sky130_fd_pr__pfet_01v8 ad=0.6765 pd=4.43 as=0.6765 ps=4.43 w=4.1 l=3.9
X5 VP.t4 GND.t169 GND.t171 GND.t170 sky130_fd_pr__nfet_01v8 ad=0.165 pd=1.33 as=0.165 ps=1.33 w=1 l=0.5
X6 a_n7729_8946.t16 a_n7651_8750.t31 VDD.t41 VDD.t40 sky130_fd_pr__pfet_01v8 ad=1.599 pd=8.98 as=0.6765 ps=4.43 w=4.1 l=3.9
X7 a_n7651_8750.t13 a_n7651_8750.t12 a_n7729_8946.t9 VDD.t32 sky130_fd_pr__pfet_01v8 ad=0.6765 pd=4.43 as=0.6765 ps=4.43 w=4.1 l=3.9
X8 DIFFPAIR_BIAS.t11 DIFFPAIR_BIAS.t10 GND.t22 GND.t21 sky130_fd_pr__nfet_01v8 ad=0.9672 pd=5.74 as=0.9672 ps=5.74 w=2.48 l=3.75
X9 DIFFPAIR_BIAS.t9 DIFFPAIR_BIAS.t8 GND.t7 GND.t6 sky130_fd_pr__nfet_01v8 ad=0.9672 pd=5.74 as=0.9672 ps=5.74 w=2.48 l=3.75
X10 a_n6364_n172.t21 VN.t6 a_n18960_7900.t15 GND.t8 sky130_fd_pr__nfet_01v8 ad=0.5478 pd=3.65 as=0.5478 ps=3.65 w=3.32 l=5.88
X11 a_n6364_n172.t1 VP.t5 a_n7651_8750.t0 GND.t3 sky130_fd_pr__nfet_01v8 ad=0.5478 pd=3.65 as=0.5478 ps=3.65 w=3.32 l=5.88
X12 VP.t3 GND.t166 GND.t168 GND.t167 sky130_fd_pr__nfet_01v8 ad=0.165 pd=1.33 as=0.165 ps=1.33 w=1 l=0.5
X13 a_n8793_8946# a_n8793_8946# a_n8793_8946# VDD.t140 sky130_fd_pr__pfet_01v8 ad=1.599 pd=8.98 as=3.198 ps=17.96 w=4.1 l=3.9
X14 GND.t165 GND.t162 GND.t164 GND.t163 sky130_fd_pr__nfet_01v8 ad=0.9672 pd=5.74 as=0 ps=0 w=2.48 l=3.75
X15 a_n7651_8750.t11 a_n7651_8750.t10 a_n7729_8946.t8 VDD.t4 sky130_fd_pr__pfet_01v8 ad=0.6765 pd=4.43 as=0.6765 ps=4.43 w=4.1 l=3.9
X16 VDD.t44 a_n7651_8750.t32 a_n5900_7192.t18 VDD.t43 sky130_fd_pr__pfet_01v8 ad=0.6765 pd=4.43 as=1.599 ps=8.98 w=4.1 l=3.9
X17 GND.t77 CS_BIAS.t26 VOUT.t39 GND.t55 sky130_fd_pr__nfet_01v8 ad=0.6204 pd=4.09 as=0.6204 ps=4.09 w=3.76 l=5.93
X18 GND.t161 GND.t159 GND.t160 GND.t91 sky130_fd_pr__nfet_01v8 ad=1.4664 pd=8.3 as=0 ps=0 w=3.76 l=5.93
X19 a_n7651_8750.t23 a_n7651_8750.t22 a_n7729_8946.t7 VDD.t15 sky130_fd_pr__pfet_01v8 ad=0.6765 pd=4.43 as=0.6765 ps=4.43 w=4.1 l=3.9
X20 VOUT.t44 a_n18960_7900.t20 VDD.t70 VDD.t69 sky130_fd_pr__pfet_01v8 ad=0.8118 pd=5.25 as=1.9188 ps=10.62 w=4.92 l=5.29
X21 GND.t76 CS_BIAS.t27 VOUT.t38 GND.t63 sky130_fd_pr__nfet_01v8 ad=1.4664 pd=8.3 as=0.6204 ps=4.09 w=3.76 l=5.93
X22 VDD.t125 VDD.t123 VDD.t124 VDD.t104 sky130_fd_pr__pfet_01v8 ad=1.9188 pd=10.62 as=0 ps=0 w=4.92 l=5.29
X23 VDD.t122 VDD.t119 VDD.t121 VDD.t120 sky130_fd_pr__pfet_01v8 ad=1.599 pd=8.98 as=0 ps=0 w=4.1 l=3.9
X24 CS_BIAS.t21 CS_BIAS.t20 GND.t75 GND.t41 sky130_fd_pr__nfet_01v8 ad=0.6204 pd=4.09 as=0.6204 ps=4.09 w=3.76 l=5.93
X25 a_n6364_n172.t12 VP.t6 a_n7651_8750.t7 GND.t2 sky130_fd_pr__nfet_01v8 ad=0.5478 pd=3.65 as=0.5478 ps=3.65 w=3.32 l=5.88
X26 GND.t74 CS_BIAS.t14 CS_BIAS.t15 GND.t63 sky130_fd_pr__nfet_01v8 ad=1.4664 pd=8.3 as=0.6204 ps=4.09 w=3.76 l=5.93
X27 VOUT.t37 CS_BIAS.t28 GND.t73 GND.t44 sky130_fd_pr__nfet_01v8 ad=0.6204 pd=4.09 as=1.4664 ps=8.3 w=3.76 l=5.93
X28 GND.t72 CS_BIAS.t4 CS_BIAS.t5 GND.t39 sky130_fd_pr__nfet_01v8 ad=0.6204 pd=4.09 as=0.6204 ps=4.09 w=3.76 l=5.93
X29 a_n18960_7900.t18 a_n7651_8750.t33 a_n5900_7192.t10 VDD.t45 sky130_fd_pr__pfet_01v8 ad=0.6765 pd=4.43 as=1.599 ps=8.98 w=4.1 l=3.9
X30 VOUT.t51 a_n18960_7900.t21 VDD.t141 VDD.t52 sky130_fd_pr__pfet_01v8 ad=0.8118 pd=5.25 as=0.8118 ps=5.25 w=4.92 l=5.29
X31 DIFFPAIR_BIAS.t7 DIFFPAIR_BIAS.t6 GND.t15 GND.t14 sky130_fd_pr__nfet_01v8 ad=0.9672 pd=5.74 as=0.9672 ps=5.74 w=2.48 l=3.75
X32 a_n6364_n172.t20 VN.t7 a_n18960_7900.t16 GND.t2 sky130_fd_pr__nfet_01v8 ad=0.5478 pd=3.65 as=0.5478 ps=3.65 w=3.32 l=5.88
X33 a_n7651_8750.t2 VP.t7 a_n6364_n172.t4 GND.t9 sky130_fd_pr__nfet_01v8 ad=1.2948 pd=7.42 as=0.5478 ps=3.65 w=3.32 l=5.88
X34 VOUT.t8 a_n18960_7900.t22 VDD.t39 VDD.t37 sky130_fd_pr__pfet_01v8 ad=1.9188 pd=10.62 as=0.8118 ps=5.25 w=4.92 l=5.29
X35 VOUT.t42 a_n18960_7900.t23 VDD.t66 VDD.t47 sky130_fd_pr__pfet_01v8 ad=0.8118 pd=5.25 as=0.8118 ps=5.25 w=4.92 l=5.29
X36 VDD.t10 a_n7651_8750.t34 a_n7729_8946.t15 VDD.t9 sky130_fd_pr__pfet_01v8 ad=0.6765 pd=4.43 as=1.599 ps=8.98 w=4.1 l=3.9
X37 VN.t4 GND.t156 GND.t158 GND.t157 sky130_fd_pr__nfet_01v8 ad=0.165 pd=1.33 as=0.165 ps=1.33 w=1 l=0.5
X38 GND.t71 CS_BIAS.t0 CS_BIAS.t1 GND.t36 sky130_fd_pr__nfet_01v8 ad=0.6204 pd=4.09 as=0.6204 ps=4.09 w=3.76 l=5.93
X39 GND.t70 CS_BIAS.t29 VOUT.t36 GND.t46 sky130_fd_pr__nfet_01v8 ad=0.6204 pd=4.09 as=0.6204 ps=4.09 w=3.76 l=5.93
X40 GND.t155 GND.t153 VP.t2 GND.t154 sky130_fd_pr__nfet_01v8 ad=0.165 pd=1.33 as=0.165 ps=1.33 w=1 l=0.5
X41 a_n6364_n172.t9 DIFFPAIR_BIAS.t12 GND.t20 GND.t19 sky130_fd_pr__nfet_01v8 ad=0.9672 pd=5.74 as=0.9672 ps=5.74 w=2.48 l=3.75
X42 VDD.t56 a_n18960_7900.t24 VOUT.t15 VDD.t50 sky130_fd_pr__pfet_01v8 ad=0.8118 pd=5.25 as=0.8118 ps=5.25 w=4.92 l=5.29
X43 VDD.t118 VDD.t116 VDD.t117 VDD.t74 sky130_fd_pr__pfet_01v8 ad=1.599 pd=8.98 as=0 ps=0 w=4.1 l=3.9
X44 CS_BIAS.t9 CS_BIAS.t8 GND.t59 GND.t44 sky130_fd_pr__nfet_01v8 ad=0.6204 pd=4.09 as=1.4664 ps=8.3 w=3.76 l=5.93
X45 VOUT.t52 a_n5900_7192.t0 sky130_fd_pr__cap_mim_m3_1 l=5.72 w=6.01
X46 VDD.t115 VDD.t113 VDD.t114 VDD.t78 sky130_fd_pr__pfet_01v8 ad=1.599 pd=8.98 as=0 ps=0 w=4.1 l=3.9
X47 VOUT.t53 a_n5900_7192.t0 sky130_fd_pr__cap_mim_m3_1 l=5.72 w=6.01
X48 GND.t152 GND.t150 GND.t151 GND.t101 sky130_fd_pr__nfet_01v8 ad=1.4664 pd=8.3 as=0 ps=0 w=3.76 l=5.93
X49 a_n18960_7900.t10 VN.t8 a_n6364_n172.t19 GND.t9 sky130_fd_pr__nfet_01v8 ad=1.2948 pd=7.42 as=0.5478 ps=3.65 w=3.32 l=5.88
X50 VDD.t24 a_n18960_7900.t25 VOUT.t4 VDD.t23 sky130_fd_pr__pfet_01v8 ad=0.8118 pd=5.25 as=0.8118 ps=5.25 w=4.92 l=5.29
X51 a_n7729_8946.t6 a_n7651_8750.t18 a_n7651_8750.t19 VDD.t36 sky130_fd_pr__pfet_01v8 ad=1.599 pd=8.98 as=0.6765 ps=4.43 w=4.1 l=3.9
X52 GND.t68 CS_BIAS.t30 VOUT.t35 GND.t39 sky130_fd_pr__nfet_01v8 ad=0.6204 pd=4.09 as=0.6204 ps=4.09 w=3.76 l=5.93
X53 VDD.t112 VDD.t110 VDD.t111 VDD.t90 sky130_fd_pr__pfet_01v8 ad=1.599 pd=8.98 as=0 ps=0 w=4.1 l=3.9
X54 a_n18960_7900.t11 VN.t9 a_n6364_n172.t18 GND.t31 sky130_fd_pr__nfet_01v8 ad=1.2948 pd=7.42 as=0.5478 ps=3.65 w=3.32 l=5.88
X55 GND.t69 CS_BIAS.t31 VOUT.t34 GND.t55 sky130_fd_pr__nfet_01v8 ad=0.6204 pd=4.09 as=0.6204 ps=4.09 w=3.76 l=5.93
X56 VOUT.t33 CS_BIAS.t32 GND.t67 GND.t65 sky130_fd_pr__nfet_01v8 ad=0.6204 pd=4.09 as=0.6204 ps=4.09 w=3.76 l=5.93
X57 GND.t149 GND.t147 GND.t148 GND.t114 sky130_fd_pr__nfet_01v8 ad=1.4664 pd=8.3 as=0 ps=0 w=3.76 l=5.93
X58 a_n7729_8946.t14 a_n7651_8750.t35 VDD.t13 VDD.t12 sky130_fd_pr__pfet_01v8 ad=0.6765 pd=4.43 as=0.6765 ps=4.43 w=4.1 l=3.9
X59 a_n7729_8946.t13 a_n7651_8750.t36 VDD.t20 VDD.t19 sky130_fd_pr__pfet_01v8 ad=1.599 pd=8.98 as=0.6765 ps=4.43 w=4.1 l=3.9
X60 CS_BIAS.t7 CS_BIAS.t6 GND.t66 GND.t65 sky130_fd_pr__nfet_01v8 ad=0.6204 pd=4.09 as=0.6204 ps=4.09 w=3.76 l=5.93
X61 a_n5900_7192.t9 a_n7651_8750.t37 a_n18960_7900.t5 VDD.t32 sky130_fd_pr__pfet_01v8 ad=0.6765 pd=4.43 as=0.6765 ps=4.43 w=4.1 l=3.9
X62 VDD.t109 VDD.t107 VDD.t108 VDD.t94 sky130_fd_pr__pfet_01v8 ad=1.9188 pd=10.62 as=0 ps=0 w=4.92 l=5.29
X63 GND.t64 CS_BIAS.t33 VOUT.t32 GND.t63 sky130_fd_pr__nfet_01v8 ad=1.4664 pd=8.3 as=0.6204 ps=4.09 w=3.76 l=5.93
X64 VOUT.t11 a_n18960_7900.t26 VDD.t49 VDD.t17 sky130_fd_pr__pfet_01v8 ad=0.8118 pd=5.25 as=0.8118 ps=5.25 w=4.92 l=5.29
X65 CS_BIAS.t13 CS_BIAS.t12 GND.t62 GND.t34 sky130_fd_pr__nfet_01v8 ad=0.6204 pd=4.09 as=0.6204 ps=4.09 w=3.76 l=5.93
X66 GND.t61 CS_BIAS.t34 VOUT.t31 GND.t53 sky130_fd_pr__nfet_01v8 ad=1.4664 pd=8.3 as=0.6204 ps=4.09 w=3.76 l=5.93
X67 a_n18960_7900.t4 a_n7651_8750.t38 a_n5900_7192.t8 VDD.t36 sky130_fd_pr__pfet_01v8 ad=1.599 pd=8.98 as=0.6765 ps=4.43 w=4.1 l=3.9
X68 a_n7729_8946.t5 a_n7651_8750.t16 a_n7651_8750.t17 VDD.t14 sky130_fd_pr__pfet_01v8 ad=0.6765 pd=4.43 as=1.599 ps=8.98 w=4.1 l=3.9
X69 GND.t60 CS_BIAS.t22 CS_BIAS.t23 GND.t46 sky130_fd_pr__nfet_01v8 ad=0.6204 pd=4.09 as=0.6204 ps=4.09 w=3.76 l=5.93
X70 a_n7651_8750.t9 VP.t8 a_n6364_n172.t24 GND.t31 sky130_fd_pr__nfet_01v8 ad=1.2948 pd=7.42 as=0.5478 ps=3.65 w=3.32 l=5.88
X71 GND.t146 GND.t144 GND.t145 GND.t135 sky130_fd_pr__nfet_01v8 ad=1.2948 pd=7.42 as=0 ps=0 w=3.32 l=5.88
X72 VOUT.t30 CS_BIAS.t35 GND.t58 GND.t41 sky130_fd_pr__nfet_01v8 ad=0.6204 pd=4.09 as=0.6204 ps=4.09 w=3.76 l=5.93
X73 VDD.t6 a_n18960_7900.t27 VOUT.t0 VDD.t5 sky130_fd_pr__pfet_01v8 ad=0.8118 pd=5.25 as=0.8118 ps=5.25 w=4.92 l=5.29
X74 GND.t143 GND.t141 VP.t1 GND.t142 sky130_fd_pr__nfet_01v8 ad=0.39 pd=2.78 as=0.165 ps=1.33 w=1 l=0.5
X75 CS_BIAS.t11 CS_BIAS.t10 GND.t57 GND.t49 sky130_fd_pr__nfet_01v8 ad=0.6204 pd=4.09 as=1.4664 ps=8.3 w=3.76 l=5.93
X76 GND.t140 GND.t138 GND.t139 GND.t125 sky130_fd_pr__nfet_01v8 ad=1.2948 pd=7.42 as=0 ps=0 w=3.32 l=5.88
X77 VDD.t71 a_n18960_7900.t28 VOUT.t45 VDD.t63 sky130_fd_pr__pfet_01v8 ad=0.8118 pd=5.25 as=0.8118 ps=5.25 w=4.92 l=5.29
X78 a_n6364_n172.t8 DIFFPAIR_BIAS.t13 GND.t18 GND.t17 sky130_fd_pr__nfet_01v8 ad=0.9672 pd=5.74 as=0.9672 ps=5.74 w=2.48 l=3.75
X79 GND.t56 CS_BIAS.t16 CS_BIAS.t17 GND.t55 sky130_fd_pr__nfet_01v8 ad=0.6204 pd=4.09 as=0.6204 ps=4.09 w=3.76 l=5.93
X80 VDD.t3 a_n7651_8750.t39 a_n5900_7192.t17 VDD.t2 sky130_fd_pr__pfet_01v8 ad=0.6765 pd=4.43 as=0.6765 ps=4.43 w=4.1 l=3.9
X81 a_n6364_n172.t25 DIFFPAIR_BIAS.t14 GND.t173 GND.t172 sky130_fd_pr__nfet_01v8 ad=0.9672 pd=5.74 as=0.9672 ps=5.74 w=2.48 l=3.75
X82 GND.t137 GND.t134 GND.t136 GND.t135 sky130_fd_pr__nfet_01v8 ad=1.2948 pd=7.42 as=0 ps=0 w=3.32 l=5.88
X83 VOUT.t9 a_n18960_7900.t29 VDD.t46 VDD.t7 sky130_fd_pr__pfet_01v8 ad=0.8118 pd=5.25 as=1.9188 ps=10.62 w=4.92 l=5.29
X84 GND.t133 GND.t131 GND.t132 GND.t84 sky130_fd_pr__nfet_01v8 ad=1.4664 pd=8.3 as=0 ps=0 w=3.76 l=5.93
X85 VOUT.t47 a_n18960_7900.t30 VDD.t129 VDD.t69 sky130_fd_pr__pfet_01v8 ad=0.8118 pd=5.25 as=1.9188 ps=10.62 w=4.92 l=5.29
X86 a_n6364_n172.t2 DIFFPAIR_BIAS.t15 GND.t5 GND.t4 sky130_fd_pr__nfet_01v8 ad=0.9672 pd=5.74 as=0.9672 ps=5.74 w=2.48 l=3.75
X87 GND.t130 GND.t128 GND.t129 GND.t114 sky130_fd_pr__nfet_01v8 ad=1.4664 pd=8.3 as=0 ps=0 w=3.76 l=5.93
X88 a_n7651_8750.t5 VP.t9 a_n6364_n172.t7 GND.t16 sky130_fd_pr__nfet_01v8 ad=0.5478 pd=3.65 as=0.5478 ps=3.65 w=3.32 l=5.88
X89 GND.t127 GND.t124 GND.t126 GND.t125 sky130_fd_pr__nfet_01v8 ad=1.2948 pd=7.42 as=0 ps=0 w=3.32 l=5.88
X90 VDD.t106 VDD.t103 VDD.t105 VDD.t104 sky130_fd_pr__pfet_01v8 ad=1.9188 pd=10.62 as=0 ps=0 w=4.92 l=5.29
X91 a_n5900_7192.t16 a_n7651_8750.t40 VDD.t62 VDD.t61 sky130_fd_pr__pfet_01v8 ad=0.6765 pd=4.43 as=0.6765 ps=4.43 w=4.1 l=3.9
X92 VDD.t102 VDD.t100 VDD.t101 VDD.t86 sky130_fd_pr__pfet_01v8 ad=1.9188 pd=10.62 as=0 ps=0 w=4.92 l=5.29
X93 a_n18960_7900.t6 a_n7651_8750.t41 a_n5900_7192.t7 VDD.t25 sky130_fd_pr__pfet_01v8 ad=0.6765 pd=4.43 as=0.6765 ps=4.43 w=4.1 l=3.9
X94 GND.t123 GND.t120 GND.t122 GND.t121 sky130_fd_pr__nfet_01v8 ad=0.9672 pd=5.74 as=0 ps=0 w=2.48 l=3.75
X95 VDD.t99 VDD.t97 VDD.t98 VDD.t82 sky130_fd_pr__pfet_01v8 ad=1.9188 pd=10.62 as=0 ps=0 w=4.92 l=5.29
X96 GND.t54 CS_BIAS.t2 CS_BIAS.t3 GND.t53 sky130_fd_pr__nfet_01v8 ad=1.4664 pd=8.3 as=0.6204 ps=4.09 w=3.76 l=5.93
X97 VDD.t27 a_n18960_7900.t31 VOUT.t5 VDD.t26 sky130_fd_pr__pfet_01v8 ad=0.8118 pd=5.25 as=0.8118 ps=5.25 w=4.92 l=5.29
X98 CS_BIAS.t19 CS_BIAS.t18 GND.t52 GND.t32 sky130_fd_pr__nfet_01v8 ad=0.6204 pd=4.09 as=0.6204 ps=4.09 w=3.76 l=5.93
X99 a_n18960_7900.t12 VN.t10 a_n6364_n172.t17 GND.t16 sky130_fd_pr__nfet_01v8 ad=0.5478 pd=3.65 as=0.5478 ps=3.65 w=3.32 l=5.88
X100 a_n18960_7900.t14 VN.t11 a_n6364_n172.t16 GND.t26 sky130_fd_pr__nfet_01v8 ad=0.5478 pd=3.65 as=1.2948 ps=7.42 w=3.32 l=5.88
X101 VOUT.t29 CS_BIAS.t36 GND.t51 GND.t49 sky130_fd_pr__nfet_01v8 ad=0.6204 pd=4.09 as=1.4664 ps=8.3 w=3.76 l=5.93
X102 a_n5900_7192.t6 a_n7651_8750.t42 a_n18960_7900.t7 VDD.t4 sky130_fd_pr__pfet_01v8 ad=0.6765 pd=4.43 as=0.6765 ps=4.43 w=4.1 l=3.9
X103 a_n5900_7192.t5 a_n7651_8750.t43 a_n18960_7900.t1 VDD.t15 sky130_fd_pr__pfet_01v8 ad=0.6765 pd=4.43 as=0.6765 ps=4.43 w=4.1 l=3.9
X104 VOUT.t13 a_n18960_7900.t32 VDD.t53 VDD.t52 sky130_fd_pr__pfet_01v8 ad=0.8118 pd=5.25 as=0.8118 ps=5.25 w=4.92 l=5.29
X105 GND.t116 GND.t113 GND.t115 GND.t114 sky130_fd_pr__nfet_01v8 ad=1.4664 pd=8.3 as=0 ps=0 w=3.76 l=5.93
X106 VOUT.t28 CS_BIAS.t37 GND.t50 GND.t49 sky130_fd_pr__nfet_01v8 ad=0.6204 pd=4.09 as=1.4664 ps=8.3 w=3.76 l=5.93
X107 VOUT.t43 a_n18960_7900.t33 VDD.t68 VDD.t67 sky130_fd_pr__pfet_01v8 ad=0.8118 pd=5.25 as=0.8118 ps=5.25 w=4.92 l=5.29
X108 a_n7729_8946.t4 a_n7651_8750.t14 a_n7651_8750.t15 VDD.t45 sky130_fd_pr__pfet_01v8 ad=0.6765 pd=4.43 as=1.599 ps=8.98 w=4.1 l=3.9
X109 a_n7651_8750.t8 VP.t10 a_n6364_n172.t23 GND.t26 sky130_fd_pr__nfet_01v8 ad=0.5478 pd=3.65 as=1.2948 ps=7.42 w=3.32 l=5.88
X110 VOUT.t10 a_n18960_7900.t34 VDD.t48 VDD.t47 sky130_fd_pr__pfet_01v8 ad=0.8118 pd=5.25 as=0.8118 ps=5.25 w=4.92 l=5.29
X111 GND.t48 CS_BIAS.t38 VOUT.t27 GND.t36 sky130_fd_pr__nfet_01v8 ad=0.6204 pd=4.09 as=0.6204 ps=4.09 w=3.76 l=5.93
X112 a_n18960_7900.t0 a_n7651_8750.t44 a_n5900_7192.t4 VDD.t11 sky130_fd_pr__pfet_01v8 ad=1.599 pd=8.98 as=0.6765 ps=4.43 w=4.1 l=3.9
X113 VDD.t72 a_n18960_7900.t35 VOUT.t46 VDD.t21 sky130_fd_pr__pfet_01v8 ad=0.8118 pd=5.25 as=0.8118 ps=5.25 w=4.92 l=5.29
X114 GND.t47 CS_BIAS.t39 VOUT.t26 GND.t46 sky130_fd_pr__nfet_01v8 ad=0.6204 pd=4.09 as=0.6204 ps=4.09 w=3.76 l=5.93
X115 VOUT.t25 CS_BIAS.t40 GND.t45 GND.t44 sky130_fd_pr__nfet_01v8 ad=0.6204 pd=4.09 as=1.4664 ps=8.3 w=3.76 l=5.93
X116 VDD.t65 a_n18960_7900.t36 VOUT.t17 VDD.t23 sky130_fd_pr__pfet_01v8 ad=0.8118 pd=5.25 as=0.8118 ps=5.25 w=4.92 l=5.29
X117 a_n7651_8750.t29 a_n7651_8750.t28 a_n7729_8946.t3 VDD.t132 sky130_fd_pr__pfet_01v8 ad=0.6765 pd=4.43 as=0.6765 ps=4.43 w=4.1 l=3.9
X118 GND.t112 GND.t110 GND.t111 GND.t101 sky130_fd_pr__nfet_01v8 ad=1.4664 pd=8.3 as=0 ps=0 w=3.76 l=5.93
X119 a_n7651_8750.t6 VP.t11 a_n6364_n172.t10 GND.t23 sky130_fd_pr__nfet_01v8 ad=0.5478 pd=3.65 as=1.2948 ps=7.42 w=3.32 l=5.88
X120 VN.t3 GND.t117 GND.t119 GND.t118 sky130_fd_pr__nfet_01v8 ad=0.165 pd=1.33 as=0.165 ps=1.33 w=1 l=0.5
X121 VDD.t60 a_n7651_8750.t45 a_n7729_8946.t12 VDD.t59 sky130_fd_pr__pfet_01v8 ad=0.6765 pd=4.43 as=0.6765 ps=4.43 w=4.1 l=3.9
X122 VOUT.t50 a_n18960_7900.t37 VDD.t139 VDD.t54 sky130_fd_pr__pfet_01v8 ad=1.9188 pd=10.62 as=0.8118 ps=5.25 w=4.92 l=5.29
X123 VDD.t96 VDD.t93 VDD.t95 VDD.t94 sky130_fd_pr__pfet_01v8 ad=1.9188 pd=10.62 as=0 ps=0 w=4.92 l=5.29
X124 VOUT.t24 CS_BIAS.t41 GND.t43 GND.t34 sky130_fd_pr__nfet_01v8 ad=0.6204 pd=4.09 as=0.6204 ps=4.09 w=3.76 l=5.93
X125 VOUT.t2 a_n18960_7900.t38 VDD.t18 VDD.t17 sky130_fd_pr__pfet_01v8 ad=0.8118 pd=5.25 as=0.8118 ps=5.25 w=4.92 l=5.29
X126 GND.t109 GND.t107 VN.t2 GND.t108 sky130_fd_pr__nfet_01v8 ad=0.39 pd=2.78 as=0.165 ps=1.33 w=1 l=0.5
X127 VDD.t31 a_n7651_8750.t46 a_n7729_8946.t11 VDD.t30 sky130_fd_pr__pfet_01v8 ad=0.6765 pd=4.43 as=1.599 ps=8.98 w=4.1 l=3.9
X128 a_n18960_7900.t9 VN.t12 a_n6364_n172.t15 GND.t23 sky130_fd_pr__nfet_01v8 ad=0.5478 pd=3.65 as=1.2948 ps=7.42 w=3.32 l=5.88
X129 VDD.t34 a_n7651_8750.t47 a_n7729_8946.t10 VDD.t33 sky130_fd_pr__pfet_01v8 ad=0.6765 pd=4.43 as=0.6765 ps=4.43 w=4.1 l=3.9
X130 VDD.t35 a_n18960_7900.t39 VOUT.t6 VDD.t5 sky130_fd_pr__pfet_01v8 ad=0.8118 pd=5.25 as=0.8118 ps=5.25 w=4.92 l=5.29
X131 GND.t89 GND.t87 VP.t0 GND.t88 sky130_fd_pr__nfet_01v8 ad=0.165 pd=1.33 as=0.39 ps=2.78 w=1 l=0.5
X132 DIFFPAIR_BIAS.t5 DIFFPAIR_BIAS.t4 GND.t12 GND.t11 sky130_fd_pr__nfet_01v8 ad=0.9672 pd=5.74 as=0.9672 ps=5.74 w=2.48 l=3.75
X133 a_n18960_7900.t13 VN.t13 a_n6364_n172.t14 GND.t13 sky130_fd_pr__nfet_01v8 ad=0.5478 pd=3.65 as=0.5478 ps=3.65 w=3.32 l=5.88
X134 VDD.t64 a_n18960_7900.t40 VOUT.t16 VDD.t63 sky130_fd_pr__pfet_01v8 ad=0.8118 pd=5.25 as=0.8118 ps=5.25 w=4.92 l=5.29
X135 a_n6364_n172.t11 DIFFPAIR_BIAS.t16 GND.t25 GND.t24 sky130_fd_pr__nfet_01v8 ad=0.9672 pd=5.74 as=0.9672 ps=5.74 w=2.48 l=3.75
X136 GND.t106 GND.t104 GND.t105 GND.t91 sky130_fd_pr__nfet_01v8 ad=1.4664 pd=8.3 as=0 ps=0 w=3.76 l=5.93
X137 a_n5900_7192.t15 a_n7651_8750.t48 VDD.t131 VDD.t130 sky130_fd_pr__pfet_01v8 ad=0.6765 pd=4.43 as=0.6765 ps=4.43 w=4.1 l=3.9
X138 VOUT.t23 CS_BIAS.t42 GND.t42 GND.t41 sky130_fd_pr__nfet_01v8 ad=0.6204 pd=4.09 as=0.6204 ps=4.09 w=3.76 l=5.93
X139 VOUT.t1 a_n18960_7900.t41 VDD.t8 VDD.t7 sky130_fd_pr__pfet_01v8 ad=0.8118 pd=5.25 as=1.9188 ps=10.62 w=4.92 l=5.29
X140 VDD.t92 VDD.t89 VDD.t91 VDD.t90 sky130_fd_pr__pfet_01v8 ad=1.599 pd=8.98 as=0 ps=0 w=4.1 l=3.9
X141 GND.t40 CS_BIAS.t43 VOUT.t22 GND.t39 sky130_fd_pr__nfet_01v8 ad=0.6204 pd=4.09 as=0.6204 ps=4.09 w=3.76 l=5.93
X142 VOUT.t21 CS_BIAS.t44 GND.t38 GND.t32 sky130_fd_pr__nfet_01v8 ad=0.6204 pd=4.09 as=0.6204 ps=4.09 w=3.76 l=5.93
X143 VDD.t88 VDD.t85 VDD.t87 VDD.t86 sky130_fd_pr__pfet_01v8 ad=1.9188 pd=10.62 as=0 ps=0 w=4.92 l=5.29
X144 a_n6364_n172.t13 VN.t14 a_n18960_7900.t8 GND.t10 sky130_fd_pr__nfet_01v8 ad=0.5478 pd=3.65 as=0.5478 ps=3.65 w=3.32 l=5.88
X145 a_n5900_7192.t14 a_n7651_8750.t49 VDD.t135 VDD.t134 sky130_fd_pr__pfet_01v8 ad=1.599 pd=8.98 as=0.6765 ps=4.43 w=4.1 l=3.9
X146 DIFFPAIR_BIAS.t3 DIFFPAIR_BIAS.t2 GND.t28 GND.t27 sky130_fd_pr__nfet_01v8 ad=0.9672 pd=5.74 as=0.9672 ps=5.74 w=2.48 l=3.75
X147 GND.t103 GND.t100 GND.t102 GND.t101 sky130_fd_pr__nfet_01v8 ad=1.4664 pd=8.3 as=0 ps=0 w=3.76 l=5.93
X148 a_n7651_8750.t4 VP.t12 a_n6364_n172.t6 GND.t13 sky130_fd_pr__nfet_01v8 ad=0.5478 pd=3.65 as=0.5478 ps=3.65 w=3.32 l=5.88
X149 VDD.t84 VDD.t81 VDD.t83 VDD.t82 sky130_fd_pr__pfet_01v8 ad=1.9188 pd=10.62 as=0 ps=0 w=4.92 l=5.29
X150 GND.t99 GND.t97 VN.t1 GND.t98 sky130_fd_pr__nfet_01v8 ad=0.165 pd=1.33 as=0.165 ps=1.33 w=1 l=0.5
X151 a_n7729_8946.t2 a_n7651_8750.t26 a_n7651_8750.t27 VDD.t16 sky130_fd_pr__pfet_01v8 ad=0.6765 pd=4.43 as=0.6765 ps=4.43 w=4.1 l=3.9
X152 VDD.t138 a_n18960_7900.t42 VOUT.t49 VDD.t26 sky130_fd_pr__pfet_01v8 ad=0.8118 pd=5.25 as=0.8118 ps=5.25 w=4.92 l=5.29
X153 a_7857_8946# a_7857_8946# a_7857_8946# VDD.t42 sky130_fd_pr__pfet_01v8 ad=1.599 pd=8.98 as=3.198 ps=17.96 w=4.1 l=3.9
X154 GND.t37 CS_BIAS.t45 VOUT.t20 GND.t36 sky130_fd_pr__nfet_01v8 ad=0.6204 pd=4.09 as=0.6204 ps=4.09 w=3.76 l=5.93
X155 VOUT.t19 CS_BIAS.t46 GND.t35 GND.t34 sky130_fd_pr__nfet_01v8 ad=0.6204 pd=4.09 as=0.6204 ps=4.09 w=3.76 l=5.93
X156 a_n18960_7900.t3 a_n7651_8750.t50 a_n5900_7192.t3 VDD.t14 sky130_fd_pr__pfet_01v8 ad=0.6765 pd=4.43 as=1.599 ps=8.98 w=4.1 l=3.9
X157 a_n6364_n172.t5 VP.t13 a_n7651_8750.t3 GND.t10 sky130_fd_pr__nfet_01v8 ad=0.5478 pd=3.65 as=0.5478 ps=3.65 w=3.32 l=5.88
X158 GND.t96 GND.t94 GND.t95 GND.t84 sky130_fd_pr__nfet_01v8 ad=1.4664 pd=8.3 as=0 ps=0 w=3.76 l=5.93
X159 a_n5900_7192.t2 a_n7651_8750.t51 a_n18960_7900.t19 VDD.t132 sky130_fd_pr__pfet_01v8 ad=0.6765 pd=4.43 as=0.6765 ps=4.43 w=4.1 l=3.9
X160 VDD.t1 a_n7651_8750.t52 a_n5900_7192.t13 VDD.t0 sky130_fd_pr__pfet_01v8 ad=0.6765 pd=4.43 as=0.6765 ps=4.43 w=4.1 l=3.9
X161 VOUT.t48 a_n18960_7900.t43 VDD.t133 VDD.t67 sky130_fd_pr__pfet_01v8 ad=0.8118 pd=5.25 as=0.8118 ps=5.25 w=4.92 l=5.29
X162 VDD.t80 VDD.t77 VDD.t79 VDD.t78 sky130_fd_pr__pfet_01v8 ad=1.599 pd=8.98 as=0 ps=0 w=4.1 l=3.9
X163 VDD.t76 VDD.t73 VDD.t75 VDD.t74 sky130_fd_pr__pfet_01v8 ad=1.599 pd=8.98 as=0 ps=0 w=4.1 l=3.9
X164 VOUT.t7 a_n18960_7900.t44 VDD.t38 VDD.t37 sky130_fd_pr__pfet_01v8 ad=1.9188 pd=10.62 as=0.8118 ps=5.25 w=4.92 l=5.29
X165 VDD.t58 a_n7651_8750.t53 a_n5900_7192.t12 VDD.t57 sky130_fd_pr__pfet_01v8 ad=0.6765 pd=4.43 as=1.599 ps=8.98 w=4.1 l=3.9
X166 a_n6364_n172.t0 DIFFPAIR_BIAS.t17 GND.t1 GND.t0 sky130_fd_pr__nfet_01v8 ad=0.9672 pd=5.74 as=0.9672 ps=5.74 w=2.48 l=3.75
X167 VDD.t22 a_n18960_7900.t45 VOUT.t3 VDD.t21 sky130_fd_pr__pfet_01v8 ad=0.8118 pd=5.25 as=0.8118 ps=5.25 w=4.92 l=5.29
X168 GND.t93 GND.t90 GND.t92 GND.t91 sky130_fd_pr__nfet_01v8 ad=1.4664 pd=8.3 as=0 ps=0 w=3.76 l=5.93
X169 GND.t86 GND.t83 GND.t85 GND.t84 sky130_fd_pr__nfet_01v8 ad=1.4664 pd=8.3 as=0 ps=0 w=3.76 l=5.93
X170 VOUT.t18 CS_BIAS.t47 GND.t33 GND.t32 sky130_fd_pr__nfet_01v8 ad=0.6204 pd=4.09 as=0.6204 ps=4.09 w=3.76 l=5.93
X171 a_n18960_7900.t2 a_n7651_8750.t54 a_n5900_7192.t1 VDD.t16 sky130_fd_pr__pfet_01v8 ad=0.6765 pd=4.43 as=0.6765 ps=4.43 w=4.1 l=3.9
X172 VDD.t51 a_n18960_7900.t46 VOUT.t12 VDD.t50 sky130_fd_pr__pfet_01v8 ad=0.8118 pd=5.25 as=0.8118 ps=5.25 w=4.92 l=5.29
X173 GND.t82 GND.t80 VN.t0 GND.t81 sky130_fd_pr__nfet_01v8 ad=0.165 pd=1.33 as=0.39 ps=2.78 w=1 l=0.5
X174 a_n7729_8946.t1 a_n7651_8750.t24 a_n7651_8750.t25 VDD.t25 sky130_fd_pr__pfet_01v8 ad=0.6765 pd=4.43 as=0.6765 ps=4.43 w=4.1 l=3.9
X175 a_n7729_8946.t0 a_n7651_8750.t20 a_n7651_8750.t21 VDD.t11 sky130_fd_pr__pfet_01v8 ad=1.599 pd=8.98 as=0.6765 ps=4.43 w=4.1 l=3.9
X176 VOUT.t14 a_n18960_7900.t47 VDD.t55 VDD.t54 sky130_fd_pr__pfet_01v8 ad=1.9188 pd=10.62 as=0.8118 ps=5.25 w=4.92 l=5.29
X177 DIFFPAIR_BIAS.t1 DIFFPAIR_BIAS.t0 GND.t30 GND.t29 sky130_fd_pr__nfet_01v8 ad=0.9672 pd=5.74 as=0.9672 ps=5.74 w=2.48 l=3.75
X178 a_n6364_n172.t3 VP.t14 a_n7651_8750.t1 GND.t8 sky130_fd_pr__nfet_01v8 ad=0.5478 pd=3.65 as=0.5478 ps=3.65 w=3.32 l=5.88
X179 a_n5900_7192.t11 a_n7651_8750.t55 VDD.t29 VDD.t28 sky130_fd_pr__pfet_01v8 ad=1.599 pd=8.98 as=0.6765 ps=4.43 w=4.1 l=3.9
R0 VDD.n215 VDD.n177 466.829
R1 VDD.n4048 VDD.n179 466.829
R2 VDD.n513 VDD.n467 466.829
R3 VDD.n603 VDD.n465 466.829
R4 VDD.n2521 VDD.n1243 466.829
R5 VDD.n2524 VDD.n2523 466.829
R6 VDD.n1640 VDD.n1620 466.829
R7 VDD.n1731 VDD.n1622 466.829
R8 VDD.n3296 VDD.n903 304.39
R9 VDD.n3717 VDD.n489 304.39
R10 VDD.n3681 VDD.n486 304.39
R11 VDD.n3170 VDD.n2977 304.39
R12 VDD.n3660 VDD.n487 304.39
R13 VDD.n3720 VDD.n3719 304.39
R14 VDD.n3253 VDD.n2978 304.39
R15 VDD.n3294 VDD.n2979 304.39
R16 VDD.n2902 VDD.n2901 304.39
R17 VDD.n2973 VDD.n925 304.39
R18 VDD.n2483 VDD.n2482 304.39
R19 VDD.n2160 VDD.n1213 304.39
R20 VDD.n2963 VDD.n933 304.39
R21 VDD.n2924 VDD.n2923 304.39
R22 VDD.n2329 VDD.n1228 304.39
R23 VDD.n2590 VDD.n1217 304.39
R24 VDD.n2308 VDD.t126 234.756
R25 VDD.n935 VDD.t116 234.756
R26 VDD.n2988 VDD.t89 234.756
R27 VDD.n614 VDD.t77 234.756
R28 VDD.n3124 VDD.t110 234.756
R29 VDD.n479 VDD.t113 234.756
R30 VDD.n2179 VDD.t119 234.756
R31 VDD.n2863 VDD.t73 234.756
R32 VDD.n1259 VDD.t81 232.611
R33 VDD.n1281 VDD.t97 232.611
R34 VDD.n1681 VDD.t100 232.611
R35 VDD.n1708 VDD.t85 232.611
R36 VDD.n527 VDD.t93 232.611
R37 VDD.n545 VDD.t107 232.611
R38 VDD.n195 VDD.t123 232.611
R39 VDD.n205 VDD.t103 232.611
R40 VDD.n1259 VDD.t83 226.718
R41 VDD.n1281 VDD.t98 226.718
R42 VDD.n1681 VDD.t102 226.718
R43 VDD.n1708 VDD.t88 226.718
R44 VDD.n527 VDD.t96 226.718
R45 VDD.n545 VDD.t109 226.718
R46 VDD.n195 VDD.t124 226.718
R47 VDD.n205 VDD.t105 226.718
R48 VDD.n1308 VDD.t42 221.085
R49 VDD.n601 VDD.t140 221.085
R50 VDD.n2308 VDD.t128 201.472
R51 VDD.n935 VDD.t117 201.472
R52 VDD.n2988 VDD.t92 201.472
R53 VDD.n614 VDD.t79 201.472
R54 VDD.n3124 VDD.t112 201.472
R55 VDD.n479 VDD.t114 201.472
R56 VDD.n2179 VDD.t122 201.472
R57 VDD.n2863 VDD.t75 201.472
R58 VDD.t42 VDD.t28 185.81
R59 VDD.t140 VDD.t9 185.81
R60 VDD.n2903 VDD.n2902 185
R61 VDD.n2902 VDD.n904 185
R62 VDD.n2904 VDD.n931 185
R63 VDD.n2968 VDD.n931 185
R64 VDD.n2906 VDD.n2905 185
R65 VDD.n2905 VDD.n929 185
R66 VDD.n2907 VDD.n941 185
R67 VDD.n2917 VDD.n941 185
R68 VDD.n2908 VDD.n949 185
R69 VDD.n949 VDD.n939 185
R70 VDD.n2910 VDD.n2909 185
R71 VDD.n2911 VDD.n2910 185
R72 VDD.n2862 VDD.n948 185
R73 VDD.n948 VDD.n945 185
R74 VDD.n2861 VDD.n2860 185
R75 VDD.n2860 VDD.n2859 185
R76 VDD.n951 VDD.n950 185
R77 VDD.n960 VDD.n951 185
R78 VDD.n2852 VDD.n2851 185
R79 VDD.n2853 VDD.n2852 185
R80 VDD.n2850 VDD.n961 185
R81 VDD.n961 VDD.n957 185
R82 VDD.n2849 VDD.n2848 185
R83 VDD.n2848 VDD.n2847 185
R84 VDD.n963 VDD.n962 185
R85 VDD.n964 VDD.n963 185
R86 VDD.n2840 VDD.n2839 185
R87 VDD.n2841 VDD.n2840 185
R88 VDD.n2838 VDD.n973 185
R89 VDD.n973 VDD.n970 185
R90 VDD.n2837 VDD.n2836 185
R91 VDD.n2836 VDD.n2835 185
R92 VDD.n975 VDD.n974 185
R93 VDD.n976 VDD.n975 185
R94 VDD.n2828 VDD.n2827 185
R95 VDD.n2829 VDD.n2828 185
R96 VDD.n2826 VDD.n985 185
R97 VDD.n985 VDD.n982 185
R98 VDD.n2825 VDD.n2824 185
R99 VDD.n2824 VDD.n2823 185
R100 VDD.n987 VDD.n986 185
R101 VDD.n988 VDD.n987 185
R102 VDD.n2816 VDD.n2815 185
R103 VDD.n2817 VDD.n2816 185
R104 VDD.n2814 VDD.n997 185
R105 VDD.n997 VDD.n994 185
R106 VDD.n2813 VDD.n2812 185
R107 VDD.n2812 VDD.n2811 185
R108 VDD.n999 VDD.n998 185
R109 VDD.n1008 VDD.n999 185
R110 VDD.n2804 VDD.n2803 185
R111 VDD.n2805 VDD.n2804 185
R112 VDD.n2802 VDD.n1009 185
R113 VDD.n1009 VDD.n1005 185
R114 VDD.n2801 VDD.n2800 185
R115 VDD.n2800 VDD.n2799 185
R116 VDD.n1011 VDD.n1010 185
R117 VDD.n1012 VDD.n1011 185
R118 VDD.n2792 VDD.n2791 185
R119 VDD.n2793 VDD.n2792 185
R120 VDD.n2790 VDD.n1021 185
R121 VDD.n1021 VDD.n1018 185
R122 VDD.n2789 VDD.n2788 185
R123 VDD.n2788 VDD.n2787 185
R124 VDD.n1023 VDD.n1022 185
R125 VDD.n1032 VDD.n1023 185
R126 VDD.n2780 VDD.n2779 185
R127 VDD.n2781 VDD.n2780 185
R128 VDD.n2778 VDD.n1033 185
R129 VDD.n1033 VDD.n1029 185
R130 VDD.n2777 VDD.n2776 185
R131 VDD.n2776 VDD.n2775 185
R132 VDD.n1035 VDD.n1034 185
R133 VDD.n1044 VDD.n1035 185
R134 VDD.n2768 VDD.n2767 185
R135 VDD.n2769 VDD.n2768 185
R136 VDD.n2766 VDD.n1045 185
R137 VDD.n1045 VDD.n1041 185
R138 VDD.n2765 VDD.n2764 185
R139 VDD.n2764 VDD.n2763 185
R140 VDD.n1047 VDD.n1046 185
R141 VDD.n1048 VDD.n1047 185
R142 VDD.n2756 VDD.n2755 185
R143 VDD.n2757 VDD.n2756 185
R144 VDD.n2754 VDD.n1057 185
R145 VDD.n1057 VDD.n1054 185
R146 VDD.n2753 VDD.n2752 185
R147 VDD.n2752 VDD.n2751 185
R148 VDD.n1059 VDD.n1058 185
R149 VDD.n1068 VDD.n1059 185
R150 VDD.n2744 VDD.n2743 185
R151 VDD.n2745 VDD.n2744 185
R152 VDD.n2742 VDD.n1069 185
R153 VDD.n1069 VDD.n1065 185
R154 VDD.n2741 VDD.n2740 185
R155 VDD.n2740 VDD.n2739 185
R156 VDD.n1071 VDD.n1070 185
R157 VDD.t25 VDD.n1071 185
R158 VDD.n2732 VDD.n2731 185
R159 VDD.n2733 VDD.n2732 185
R160 VDD.n2730 VDD.n1080 185
R161 VDD.n1080 VDD.n1077 185
R162 VDD.n2729 VDD.n2728 185
R163 VDD.n2728 VDD.n2727 185
R164 VDD.n1082 VDD.n1081 185
R165 VDD.n1083 VDD.n1082 185
R166 VDD.n2720 VDD.n2719 185
R167 VDD.n2721 VDD.n2720 185
R168 VDD.n2718 VDD.n1092 185
R169 VDD.n1092 VDD.n1089 185
R170 VDD.n2717 VDD.n2716 185
R171 VDD.n2716 VDD.n2715 185
R172 VDD.n1094 VDD.n1093 185
R173 VDD.n1095 VDD.n1094 185
R174 VDD.n2708 VDD.n2707 185
R175 VDD.n2709 VDD.n2708 185
R176 VDD.n2706 VDD.n1104 185
R177 VDD.n1104 VDD.n1101 185
R178 VDD.n2705 VDD.n2704 185
R179 VDD.n2704 VDD.n2703 185
R180 VDD.n1106 VDD.n1105 185
R181 VDD.n1107 VDD.n1106 185
R182 VDD.n2696 VDD.n2695 185
R183 VDD.n2697 VDD.n2696 185
R184 VDD.n2694 VDD.n1116 185
R185 VDD.n1116 VDD.n1113 185
R186 VDD.n2693 VDD.n2692 185
R187 VDD.n2692 VDD.n2691 185
R188 VDD.n1118 VDD.n1117 185
R189 VDD.n1119 VDD.n1118 185
R190 VDD.n2684 VDD.n2683 185
R191 VDD.n2685 VDD.n2684 185
R192 VDD.n2682 VDD.n1128 185
R193 VDD.n1128 VDD.n1125 185
R194 VDD.n2681 VDD.n2680 185
R195 VDD.n2680 VDD.n2679 185
R196 VDD.n1130 VDD.n1129 185
R197 VDD.n1131 VDD.n1130 185
R198 VDD.n2672 VDD.n2671 185
R199 VDD.n2673 VDD.n2672 185
R200 VDD.n2670 VDD.n1140 185
R201 VDD.n1140 VDD.n1137 185
R202 VDD.n2669 VDD.n2668 185
R203 VDD.n2668 VDD.n2667 185
R204 VDD.n1142 VDD.n1141 185
R205 VDD.n1143 VDD.n1142 185
R206 VDD.n2660 VDD.n2659 185
R207 VDD.n2661 VDD.n2660 185
R208 VDD.n2658 VDD.n1152 185
R209 VDD.n1152 VDD.n1149 185
R210 VDD.n2657 VDD.n2656 185
R211 VDD.n2656 VDD.n2655 185
R212 VDD.n1154 VDD.n1153 185
R213 VDD.n1155 VDD.n1154 185
R214 VDD.n2648 VDD.n2647 185
R215 VDD.n2649 VDD.n2648 185
R216 VDD.n2646 VDD.n1164 185
R217 VDD.n1164 VDD.n1161 185
R218 VDD.n2645 VDD.n2644 185
R219 VDD.n2644 VDD.n2643 185
R220 VDD.n1166 VDD.n1165 185
R221 VDD.n1167 VDD.n1166 185
R222 VDD.n2636 VDD.n2635 185
R223 VDD.n2637 VDD.n2636 185
R224 VDD.n2634 VDD.n1176 185
R225 VDD.n1176 VDD.n1173 185
R226 VDD.n2633 VDD.n2632 185
R227 VDD.n2632 VDD.n2631 185
R228 VDD.n1178 VDD.n1177 185
R229 VDD.n1179 VDD.n1178 185
R230 VDD.n2624 VDD.n2623 185
R231 VDD.n2625 VDD.n2624 185
R232 VDD.n2622 VDD.n1188 185
R233 VDD.n1188 VDD.n1185 185
R234 VDD.n2621 VDD.n2620 185
R235 VDD.n2620 VDD.n2619 185
R236 VDD.n1190 VDD.n1189 185
R237 VDD.n2468 VDD.n1190 185
R238 VDD.n2612 VDD.n2611 185
R239 VDD.n2613 VDD.n2612 185
R240 VDD.n2610 VDD.n1199 185
R241 VDD.n1199 VDD.n1196 185
R242 VDD.n2609 VDD.n2608 185
R243 VDD.n2608 VDD.n2607 185
R244 VDD.n1201 VDD.n1200 185
R245 VDD.n1202 VDD.n1201 185
R246 VDD.n2600 VDD.n2599 185
R247 VDD.n2601 VDD.n2600 185
R248 VDD.n2598 VDD.n1211 185
R249 VDD.n1211 VDD.n1208 185
R250 VDD.n2597 VDD.n2596 185
R251 VDD.n2596 VDD.n2595 185
R252 VDD.n1213 VDD.n1212 185
R253 VDD.n1214 VDD.n1213 185
R254 VDD.n2161 VDD.n2160 185
R255 VDD.n2163 VDD.n2162 185
R256 VDD.n2165 VDD.n2164 185
R257 VDD.n2167 VDD.n2166 185
R258 VDD.n2169 VDD.n2168 185
R259 VDD.n2171 VDD.n2170 185
R260 VDD.n2173 VDD.n2172 185
R261 VDD.n2175 VDD.n2174 185
R262 VDD.n2177 VDD.n2176 185
R263 VDD.n2502 VDD.n2178 185
R264 VDD.n2504 VDD.n2503 185
R265 VDD.n2501 VDD.n2500 185
R266 VDD.n2499 VDD.n2498 185
R267 VDD.n2497 VDD.n2496 185
R268 VDD.n2495 VDD.n2494 185
R269 VDD.n2493 VDD.n2492 185
R270 VDD.n2491 VDD.n2490 185
R271 VDD.n2488 VDD.n2487 185
R272 VDD.n2486 VDD.n2485 185
R273 VDD.n2484 VDD.n2483 185
R274 VDD.n2973 VDD.n2972 185
R275 VDD.n926 VDD.n924 185
R276 VDD.n2866 VDD.n2865 185
R277 VDD.n2869 VDD.n2868 185
R278 VDD.n2871 VDD.n2870 185
R279 VDD.n2873 VDD.n2872 185
R280 VDD.n2875 VDD.n2874 185
R281 VDD.n2877 VDD.n2876 185
R282 VDD.n2879 VDD.n2878 185
R283 VDD.n2881 VDD.n2880 185
R284 VDD.n2883 VDD.n2882 185
R285 VDD.n2885 VDD.n2884 185
R286 VDD.n2887 VDD.n2886 185
R287 VDD.n2889 VDD.n2888 185
R288 VDD.n2891 VDD.n2890 185
R289 VDD.n2893 VDD.n2892 185
R290 VDD.n2895 VDD.n2894 185
R291 VDD.n2897 VDD.n2896 185
R292 VDD.n2899 VDD.n2898 185
R293 VDD.n2901 VDD.n2900 185
R294 VDD.n2971 VDD.n925 185
R295 VDD.n925 VDD.n904 185