* NGSPICE file created from diff_pair_sample_1766.ext - technology: sky130A

.subckt diff_pair_sample_1766 VTAIL VN VP B VDD2 VDD1
X0 VDD1.t9 VP.t0 VTAIL.t12 w_n5506_n3322# sky130_fd_pr__pfet_01v8 ad=4.5903 pd=24.32 as=1.94205 ps=12.1 w=11.77 l=3.45
X1 VTAIL.t8 VN.t0 VDD2.t9 w_n5506_n3322# sky130_fd_pr__pfet_01v8 ad=1.94205 pd=12.1 as=1.94205 ps=12.1 w=11.77 l=3.45
X2 VTAIL.t17 VP.t1 VDD1.t8 w_n5506_n3322# sky130_fd_pr__pfet_01v8 ad=1.94205 pd=12.1 as=1.94205 ps=12.1 w=11.77 l=3.45
X3 VDD2.t8 VN.t1 VTAIL.t2 w_n5506_n3322# sky130_fd_pr__pfet_01v8 ad=1.94205 pd=12.1 as=4.5903 ps=24.32 w=11.77 l=3.45
X4 VDD1.t7 VP.t2 VTAIL.t18 w_n5506_n3322# sky130_fd_pr__pfet_01v8 ad=1.94205 pd=12.1 as=4.5903 ps=24.32 w=11.77 l=3.45
X5 VTAIL.t4 VN.t2 VDD2.t7 w_n5506_n3322# sky130_fd_pr__pfet_01v8 ad=1.94205 pd=12.1 as=1.94205 ps=12.1 w=11.77 l=3.45
X6 VDD2.t6 VN.t3 VTAIL.t6 w_n5506_n3322# sky130_fd_pr__pfet_01v8 ad=1.94205 pd=12.1 as=1.94205 ps=12.1 w=11.77 l=3.45
X7 VTAIL.t10 VP.t3 VDD1.t6 w_n5506_n3322# sky130_fd_pr__pfet_01v8 ad=1.94205 pd=12.1 as=1.94205 ps=12.1 w=11.77 l=3.45
X8 VTAIL.t16 VP.t4 VDD1.t5 w_n5506_n3322# sky130_fd_pr__pfet_01v8 ad=1.94205 pd=12.1 as=1.94205 ps=12.1 w=11.77 l=3.45
X9 VDD2.t5 VN.t4 VTAIL.t3 w_n5506_n3322# sky130_fd_pr__pfet_01v8 ad=4.5903 pd=24.32 as=1.94205 ps=12.1 w=11.77 l=3.45
X10 B.t11 B.t9 B.t10 w_n5506_n3322# sky130_fd_pr__pfet_01v8 ad=4.5903 pd=24.32 as=0 ps=0 w=11.77 l=3.45
X11 B.t8 B.t6 B.t7 w_n5506_n3322# sky130_fd_pr__pfet_01v8 ad=4.5903 pd=24.32 as=0 ps=0 w=11.77 l=3.45
X12 VDD2.t4 VN.t5 VTAIL.t5 w_n5506_n3322# sky130_fd_pr__pfet_01v8 ad=1.94205 pd=12.1 as=4.5903 ps=24.32 w=11.77 l=3.45
X13 VDD2.t3 VN.t6 VTAIL.t7 w_n5506_n3322# sky130_fd_pr__pfet_01v8 ad=1.94205 pd=12.1 as=1.94205 ps=12.1 w=11.77 l=3.45
X14 B.t5 B.t3 B.t4 w_n5506_n3322# sky130_fd_pr__pfet_01v8 ad=4.5903 pd=24.32 as=0 ps=0 w=11.77 l=3.45
X15 VDD1.t4 VP.t5 VTAIL.t14 w_n5506_n3322# sky130_fd_pr__pfet_01v8 ad=1.94205 pd=12.1 as=1.94205 ps=12.1 w=11.77 l=3.45
X16 VDD1.t3 VP.t6 VTAIL.t13 w_n5506_n3322# sky130_fd_pr__pfet_01v8 ad=4.5903 pd=24.32 as=1.94205 ps=12.1 w=11.77 l=3.45
X17 B.t2 B.t0 B.t1 w_n5506_n3322# sky130_fd_pr__pfet_01v8 ad=4.5903 pd=24.32 as=0 ps=0 w=11.77 l=3.45
X18 VTAIL.t0 VN.t7 VDD2.t2 w_n5506_n3322# sky130_fd_pr__pfet_01v8 ad=1.94205 pd=12.1 as=1.94205 ps=12.1 w=11.77 l=3.45
X19 VDD1.t2 VP.t7 VTAIL.t11 w_n5506_n3322# sky130_fd_pr__pfet_01v8 ad=1.94205 pd=12.1 as=1.94205 ps=12.1 w=11.77 l=3.45
X20 VDD2.t1 VN.t8 VTAIL.t9 w_n5506_n3322# sky130_fd_pr__pfet_01v8 ad=4.5903 pd=24.32 as=1.94205 ps=12.1 w=11.77 l=3.45
X21 VTAIL.t1 VN.t9 VDD2.t0 w_n5506_n3322# sky130_fd_pr__pfet_01v8 ad=1.94205 pd=12.1 as=1.94205 ps=12.1 w=11.77 l=3.45
X22 VTAIL.t19 VP.t8 VDD1.t1 w_n5506_n3322# sky130_fd_pr__pfet_01v8 ad=1.94205 pd=12.1 as=1.94205 ps=12.1 w=11.77 l=3.45
X23 VDD1.t0 VP.t9 VTAIL.t15 w_n5506_n3322# sky130_fd_pr__pfet_01v8 ad=1.94205 pd=12.1 as=4.5903 ps=24.32 w=11.77 l=3.45
R0 VP.n32 VP.n29 161.3
R1 VP.n34 VP.n33 161.3
R2 VP.n35 VP.n28 161.3
R3 VP.n37 VP.n36 161.3
R4 VP.n38 VP.n27 161.3
R5 VP.n40 VP.n39 161.3
R6 VP.n41 VP.n26 161.3
R7 VP.n44 VP.n43 161.3
R8 VP.n45 VP.n25 161.3
R9 VP.n47 VP.n46 161.3
R10 VP.n48 VP.n24 161.3
R11 VP.n50 VP.n49 161.3
R12 VP.n51 VP.n23 161.3
R13 VP.n53 VP.n52 161.3
R14 VP.n54 VP.n22 161.3
R15 VP.n56 VP.n55 161.3
R16 VP.n58 VP.n57 161.3
R17 VP.n59 VP.n20 161.3
R18 VP.n61 VP.n60 161.3
R19 VP.n62 VP.n19 161.3
R20 VP.n64 VP.n63 161.3
R21 VP.n65 VP.n18 161.3
R22 VP.n67 VP.n66 161.3
R23 VP.n117 VP.n116 161.3
R24 VP.n115 VP.n1 161.3
R25 VP.n114 VP.n113 161.3
R26 VP.n112 VP.n2 161.3
R27 VP.n111 VP.n110 161.3
R28 VP.n109 VP.n3 161.3
R29 VP.n108 VP.n107 161.3
R30 VP.n106 VP.n105 161.3
R31 VP.n104 VP.n5 161.3
R32 VP.n103 VP.n102 161.3
R33 VP.n101 VP.n6 161.3
R34 VP.n100 VP.n99 161.3
R35 VP.n98 VP.n7 161.3
R36 VP.n97 VP.n96 161.3
R37 VP.n95 VP.n8 161.3
R38 VP.n94 VP.n93 161.3
R39 VP.n91 VP.n9 161.3
R40 VP.n90 VP.n89 161.3
R41 VP.n88 VP.n10 161.3
R42 VP.n87 VP.n86 161.3
R43 VP.n85 VP.n11 161.3
R44 VP.n84 VP.n83 161.3
R45 VP.n82 VP.n12 161.3
R46 VP.n81 VP.n80 161.3
R47 VP.n78 VP.n13 161.3
R48 VP.n77 VP.n76 161.3
R49 VP.n75 VP.n14 161.3
R50 VP.n74 VP.n73 161.3
R51 VP.n72 VP.n15 161.3
R52 VP.n71 VP.n70 161.3
R53 VP.n31 VP.t6 115.079
R54 VP.n16 VP.t0 82.2199
R55 VP.n79 VP.t8 82.2199
R56 VP.n92 VP.t5 82.2199
R57 VP.n4 VP.t3 82.2199
R58 VP.n0 VP.t9 82.2199
R59 VP.n17 VP.t2 82.2199
R60 VP.n21 VP.t4 82.2199
R61 VP.n42 VP.t7 82.2199
R62 VP.n30 VP.t1 82.2199
R63 VP.n69 VP.n16 74.8979
R64 VP.n118 VP.n0 74.8979
R65 VP.n68 VP.n17 74.8979
R66 VP.n31 VP.n30 73.2461
R67 VP.n69 VP.n68 57.719
R68 VP.n86 VP.n10 54.0911
R69 VP.n99 VP.n6 54.0911
R70 VP.n49 VP.n23 54.0911
R71 VP.n36 VP.n27 54.0911
R72 VP.n77 VP.n14 48.2635
R73 VP.n110 VP.n2 48.2635
R74 VP.n60 VP.n19 48.2635
R75 VP.n73 VP.n14 32.7233
R76 VP.n114 VP.n2 32.7233
R77 VP.n64 VP.n19 32.7233
R78 VP.n90 VP.n10 26.8957
R79 VP.n99 VP.n98 26.8957
R80 VP.n49 VP.n48 26.8957
R81 VP.n40 VP.n27 26.8957
R82 VP.n72 VP.n71 24.4675
R83 VP.n73 VP.n72 24.4675
R84 VP.n78 VP.n77 24.4675
R85 VP.n80 VP.n78 24.4675
R86 VP.n84 VP.n12 24.4675
R87 VP.n85 VP.n84 24.4675
R88 VP.n86 VP.n85 24.4675
R89 VP.n91 VP.n90 24.4675
R90 VP.n93 VP.n91 24.4675
R91 VP.n97 VP.n8 24.4675
R92 VP.n98 VP.n97 24.4675
R93 VP.n103 VP.n6 24.4675
R94 VP.n104 VP.n103 24.4675
R95 VP.n105 VP.n104 24.4675
R96 VP.n109 VP.n108 24.4675
R97 VP.n110 VP.n109 24.4675
R98 VP.n115 VP.n114 24.4675
R99 VP.n116 VP.n115 24.4675
R100 VP.n65 VP.n64 24.4675
R101 VP.n66 VP.n65 24.4675
R102 VP.n53 VP.n23 24.4675
R103 VP.n54 VP.n53 24.4675
R104 VP.n55 VP.n54 24.4675
R105 VP.n59 VP.n58 24.4675
R106 VP.n60 VP.n59 24.4675
R107 VP.n41 VP.n40 24.4675
R108 VP.n43 VP.n41 24.4675
R109 VP.n47 VP.n25 24.4675
R110 VP.n48 VP.n47 24.4675
R111 VP.n34 VP.n29 24.4675
R112 VP.n35 VP.n34 24.4675
R113 VP.n36 VP.n35 24.4675
R114 VP.n80 VP.n79 22.9995
R115 VP.n108 VP.n4 22.9995
R116 VP.n58 VP.n21 22.9995
R117 VP.n71 VP.n16 15.17
R118 VP.n116 VP.n0 15.17
R119 VP.n66 VP.n17 15.17
R120 VP.n93 VP.n92 12.234
R121 VP.n92 VP.n8 12.234
R122 VP.n43 VP.n42 12.234
R123 VP.n42 VP.n25 12.234
R124 VP.n32 VP.n31 4.14768
R125 VP.n79 VP.n12 1.46852
R126 VP.n105 VP.n4 1.46852
R127 VP.n55 VP.n21 1.46852
R128 VP.n30 VP.n29 1.46852
R129 VP.n68 VP.n67 0.354971
R130 VP.n70 VP.n69 0.354971
R131 VP.n118 VP.n117 0.354971
R132 VP VP.n118 0.26696
R133 VP.n33 VP.n32 0.189894
R134 VP.n33 VP.n28 0.189894
R135 VP.n37 VP.n28 0.189894
R136 VP.n38 VP.n37 0.189894
R137 VP.n39 VP.n38 0.189894
R138 VP.n39 VP.n26 0.189894
R139 VP.n44 VP.n26 0.189894
R140 VP.n45 VP.n44 0.189894
R141 VP.n46 VP.n45 0.189894
R142 VP.n46 VP.n24 0.189894
R143 VP.n50 VP.n24 0.189894
R144 VP.n51 VP.n50 0.189894
R145 VP.n52 VP.n51 0.189894
R146 VP.n52 VP.n22 0.189894
R147 VP.n56 VP.n22 0.189894
R148 VP.n57 VP.n56 0.189894
R149 VP.n57 VP.n20 0.189894
R150 VP.n61 VP.n20 0.189894
R151 VP.n62 VP.n61 0.189894
R152 VP.n63 VP.n62 0.189894
R153 VP.n63 VP.n18 0.189894
R154 VP.n67 VP.n18 0.189894
R155 VP.n70 VP.n15 0.189894
R156 VP.n74 VP.n15 0.189894
R157 VP.n75 VP.n74 0.189894
R158 VP.n76 VP.n75 0.189894
R159 VP.n76 VP.n13 0.189894
R160 VP.n81 VP.n13 0.189894
R161 VP.n82 VP.n81 0.189894
R162 VP.n83 VP.n82 0.189894
R163 VP.n83 VP.n11 0.189894
R164 VP.n87 VP.n11 0.189894
R165 VP.n88 VP.n87 0.189894
R166 VP.n89 VP.n88 0.189894
R167 VP.n89 VP.n9 0.189894
R168 VP.n94 VP.n9 0.189894
R169 VP.n95 VP.n94 0.189894
R170 VP.n96 VP.n95 0.189894
R171 VP.n96 VP.n7 0.189894
R172 VP.n100 VP.n7 0.189894
R173 VP.n101 VP.n100 0.189894
R174 VP.n102 VP.n101 0.189894
R175 VP.n102 VP.n5 0.189894
R176 VP.n106 VP.n5 0.189894
R177 VP.n107 VP.n106 0.189894
R178 VP.n107 VP.n3 0.189894
R179 VP.n111 VP.n3 0.189894
R180 VP.n112 VP.n111 0.189894
R181 VP.n113 VP.n112 0.189894
R182 VP.n113 VP.n1 0.189894
R183 VP.n117 VP.n1 0.189894
R184 VTAIL.n11 VTAIL.t5 60.5718
R185 VTAIL.n17 VTAIL.t2 60.5715
R186 VTAIL.n2 VTAIL.t15 60.5715
R187 VTAIL.n16 VTAIL.t18 60.5715
R188 VTAIL.n15 VTAIL.n14 57.8101
R189 VTAIL.n13 VTAIL.n12 57.8101
R190 VTAIL.n10 VTAIL.n9 57.8101
R191 VTAIL.n8 VTAIL.n7 57.8101
R192 VTAIL.n19 VTAIL.n18 57.8098
R193 VTAIL.n1 VTAIL.n0 57.8098
R194 VTAIL.n4 VTAIL.n3 57.8098
R195 VTAIL.n6 VTAIL.n5 57.8098
R196 VTAIL.n8 VTAIL.n6 29.0307
R197 VTAIL.n17 VTAIL.n16 25.7721
R198 VTAIL.n10 VTAIL.n8 3.25912
R199 VTAIL.n11 VTAIL.n10 3.25912
R200 VTAIL.n15 VTAIL.n13 3.25912
R201 VTAIL.n16 VTAIL.n15 3.25912
R202 VTAIL.n6 VTAIL.n4 3.25912
R203 VTAIL.n4 VTAIL.n2 3.25912
R204 VTAIL.n19 VTAIL.n17 3.25912
R205 VTAIL.n18 VTAIL.t7 2.76218
R206 VTAIL.n18 VTAIL.t0 2.76218
R207 VTAIL.n0 VTAIL.t9 2.76218
R208 VTAIL.n0 VTAIL.t8 2.76218
R209 VTAIL.n3 VTAIL.t14 2.76218
R210 VTAIL.n3 VTAIL.t10 2.76218
R211 VTAIL.n5 VTAIL.t12 2.76218
R212 VTAIL.n5 VTAIL.t19 2.76218
R213 VTAIL.n14 VTAIL.t11 2.76218
R214 VTAIL.n14 VTAIL.t16 2.76218
R215 VTAIL.n12 VTAIL.t13 2.76218
R216 VTAIL.n12 VTAIL.t17 2.76218
R217 VTAIL.n9 VTAIL.t6 2.76218
R218 VTAIL.n9 VTAIL.t4 2.76218
R219 VTAIL.n7 VTAIL.t3 2.76218
R220 VTAIL.n7 VTAIL.t1 2.76218
R221 VTAIL VTAIL.n1 2.50266
R222 VTAIL.n13 VTAIL.n11 2.09964
R223 VTAIL.n2 VTAIL.n1 2.09964
R224 VTAIL VTAIL.n19 0.756965
R225 VDD1.n1 VDD1.t3 80.5092
R226 VDD1.n3 VDD1.t9 80.5089
R227 VDD1.n5 VDD1.n4 76.8772
R228 VDD1.n1 VDD1.n0 74.4889
R229 VDD1.n7 VDD1.n6 74.4887
R230 VDD1.n3 VDD1.n2 74.4886
R231 VDD1.n7 VDD1.n5 51.5526
R232 VDD1.n6 VDD1.t5 2.76218
R233 VDD1.n6 VDD1.t7 2.76218
R234 VDD1.n0 VDD1.t8 2.76218
R235 VDD1.n0 VDD1.t2 2.76218
R236 VDD1.n4 VDD1.t6 2.76218
R237 VDD1.n4 VDD1.t0 2.76218
R238 VDD1.n2 VDD1.t1 2.76218
R239 VDD1.n2 VDD1.t4 2.76218
R240 VDD1 VDD1.n7 2.38628
R241 VDD1 VDD1.n1 0.873345
R242 VDD1.n5 VDD1.n3 0.759809
R243 VN.n102 VN.n101 161.3
R244 VN.n100 VN.n53 161.3
R245 VN.n99 VN.n98 161.3
R246 VN.n97 VN.n54 161.3
R247 VN.n96 VN.n95 161.3
R248 VN.n94 VN.n55 161.3
R249 VN.n93 VN.n92 161.3
R250 VN.n91 VN.n90 161.3
R251 VN.n89 VN.n57 161.3
R252 VN.n88 VN.n87 161.3
R253 VN.n86 VN.n58 161.3
R254 VN.n85 VN.n84 161.3
R255 VN.n83 VN.n59 161.3
R256 VN.n82 VN.n81 161.3
R257 VN.n80 VN.n60 161.3
R258 VN.n79 VN.n78 161.3
R259 VN.n77 VN.n61 161.3
R260 VN.n76 VN.n75 161.3
R261 VN.n74 VN.n63 161.3
R262 VN.n73 VN.n72 161.3
R263 VN.n71 VN.n64 161.3
R264 VN.n70 VN.n69 161.3
R265 VN.n68 VN.n65 161.3
R266 VN.n50 VN.n49 161.3
R267 VN.n48 VN.n1 161.3
R268 VN.n47 VN.n46 161.3
R269 VN.n45 VN.n2 161.3
R270 VN.n44 VN.n43 161.3
R271 VN.n42 VN.n3 161.3
R272 VN.n41 VN.n40 161.3
R273 VN.n39 VN.n38 161.3
R274 VN.n37 VN.n5 161.3
R275 VN.n36 VN.n35 161.3
R276 VN.n34 VN.n6 161.3
R277 VN.n33 VN.n32 161.3
R278 VN.n31 VN.n7 161.3
R279 VN.n30 VN.n29 161.3
R280 VN.n28 VN.n8 161.3
R281 VN.n27 VN.n26 161.3
R282 VN.n24 VN.n9 161.3
R283 VN.n23 VN.n22 161.3
R284 VN.n21 VN.n10 161.3
R285 VN.n20 VN.n19 161.3
R286 VN.n18 VN.n11 161.3
R287 VN.n17 VN.n16 161.3
R288 VN.n15 VN.n12 161.3
R289 VN.n14 VN.t8 115.079
R290 VN.n67 VN.t5 115.079
R291 VN.n13 VN.t0 82.2199
R292 VN.n25 VN.t6 82.2199
R293 VN.n4 VN.t7 82.2199
R294 VN.n0 VN.t1 82.2199
R295 VN.n66 VN.t2 82.2199
R296 VN.n62 VN.t3 82.2199
R297 VN.n56 VN.t9 82.2199
R298 VN.n52 VN.t4 82.2199
R299 VN.n51 VN.n0 74.8979
R300 VN.n103 VN.n52 74.8979
R301 VN.n14 VN.n13 73.246
R302 VN.n67 VN.n66 73.246
R303 VN VN.n103 57.8844
R304 VN.n19 VN.n10 54.0911
R305 VN.n32 VN.n6 54.0911
R306 VN.n72 VN.n63 54.0911
R307 VN.n84 VN.n58 54.0911
R308 VN.n43 VN.n2 48.2635
R309 VN.n95 VN.n54 48.2635
R310 VN.n47 VN.n2 32.7233
R311 VN.n99 VN.n54 32.7233
R312 VN.n23 VN.n10 26.8957
R313 VN.n32 VN.n31 26.8957
R314 VN.n76 VN.n63 26.8957
R315 VN.n84 VN.n83 26.8957
R316 VN.n17 VN.n12 24.4675
R317 VN.n18 VN.n17 24.4675
R318 VN.n19 VN.n18 24.4675
R319 VN.n24 VN.n23 24.4675
R320 VN.n26 VN.n24 24.4675
R321 VN.n30 VN.n8 24.4675
R322 VN.n31 VN.n30 24.4675
R323 VN.n36 VN.n6 24.4675
R324 VN.n37 VN.n36 24.4675
R325 VN.n38 VN.n37 24.4675
R326 VN.n42 VN.n41 24.4675
R327 VN.n43 VN.n42 24.4675
R328 VN.n48 VN.n47 24.4675
R329 VN.n49 VN.n48 24.4675
R330 VN.n72 VN.n71 24.4675
R331 VN.n71 VN.n70 24.4675
R332 VN.n70 VN.n65 24.4675
R333 VN.n83 VN.n82 24.4675
R334 VN.n82 VN.n60 24.4675
R335 VN.n78 VN.n77 24.4675
R336 VN.n77 VN.n76 24.4675
R337 VN.n95 VN.n94 24.4675
R338 VN.n94 VN.n93 24.4675
R339 VN.n90 VN.n89 24.4675
R340 VN.n89 VN.n88 24.4675
R341 VN.n88 VN.n58 24.4675
R342 VN.n101 VN.n100 24.4675
R343 VN.n100 VN.n99 24.4675
R344 VN.n41 VN.n4 22.9995
R345 VN.n93 VN.n56 22.9995
R346 VN.n49 VN.n0 15.17
R347 VN.n101 VN.n52 15.17
R348 VN.n26 VN.n25 12.234
R349 VN.n25 VN.n8 12.234
R350 VN.n62 VN.n60 12.234
R351 VN.n78 VN.n62 12.234
R352 VN.n15 VN.n14 4.14771
R353 VN.n68 VN.n67 4.14771
R354 VN.n13 VN.n12 1.46852
R355 VN.n38 VN.n4 1.46852
R356 VN.n66 VN.n65 1.46852
R357 VN.n90 VN.n56 1.46852
R358 VN.n103 VN.n102 0.354971
R359 VN.n51 VN.n50 0.354971
R360 VN VN.n51 0.26696
R361 VN.n102 VN.n53 0.189894
R362 VN.n98 VN.n53 0.189894
R363 VN.n98 VN.n97 0.189894
R364 VN.n97 VN.n96 0.189894
R365 VN.n96 VN.n55 0.189894
R366 VN.n92 VN.n55 0.189894
R367 VN.n92 VN.n91 0.189894
R368 VN.n91 VN.n57 0.189894
R369 VN.n87 VN.n57 0.189894
R370 VN.n87 VN.n86 0.189894
R371 VN.n86 VN.n85 0.189894
R372 VN.n85 VN.n59 0.189894
R373 VN.n81 VN.n59 0.189894
R374 VN.n81 VN.n80 0.189894
R375 VN.n80 VN.n79 0.189894
R376 VN.n79 VN.n61 0.189894
R377 VN.n75 VN.n61 0.189894
R378 VN.n75 VN.n74 0.189894
R379 VN.n74 VN.n73 0.189894
R380 VN.n73 VN.n64 0.189894
R381 VN.n69 VN.n64 0.189894
R382 VN.n69 VN.n68 0.189894
R383 VN.n16 VN.n15 0.189894
R384 VN.n16 VN.n11 0.189894
R385 VN.n20 VN.n11 0.189894
R386 VN.n21 VN.n20 0.189894
R387 VN.n22 VN.n21 0.189894
R388 VN.n22 VN.n9 0.189894
R389 VN.n27 VN.n9 0.189894
R390 VN.n28 VN.n27 0.189894
R391 VN.n29 VN.n28 0.189894
R392 VN.n29 VN.n7 0.189894
R393 VN.n33 VN.n7 0.189894
R394 VN.n34 VN.n33 0.189894
R395 VN.n35 VN.n34 0.189894
R396 VN.n35 VN.n5 0.189894
R397 VN.n39 VN.n5 0.189894
R398 VN.n40 VN.n39 0.189894
R399 VN.n40 VN.n3 0.189894
R400 VN.n44 VN.n3 0.189894
R401 VN.n45 VN.n44 0.189894
R402 VN.n46 VN.n45 0.189894
R403 VN.n46 VN.n1 0.189894
R404 VN.n50 VN.n1 0.189894
R405 VDD2.n1 VDD2.t1 80.5089
R406 VDD2.n4 VDD2.t5 77.2505
R407 VDD2.n3 VDD2.n2 76.8772
R408 VDD2 VDD2.n7 76.8745
R409 VDD2.n6 VDD2.n5 74.4889
R410 VDD2.n1 VDD2.n0 74.4886
R411 VDD2.n4 VDD2.n3 49.3403
R412 VDD2.n6 VDD2.n4 3.25912
R413 VDD2.n7 VDD2.t7 2.76218
R414 VDD2.n7 VDD2.t4 2.76218
R415 VDD2.n5 VDD2.t0 2.76218
R416 VDD2.n5 VDD2.t6 2.76218
R417 VDD2.n2 VDD2.t2 2.76218
R418 VDD2.n2 VDD2.t8 2.76218
R419 VDD2.n0 VDD2.t9 2.76218
R420 VDD2.n0 VDD2.t3 2.76218
R421 VDD2 VDD2.n6 0.873345
R422 VDD2.n3 VDD2.n1 0.759809
R423 B.n728 B.n89 585
R424 B.n730 B.n729 585
R425 B.n731 B.n88 585
R426 B.n733 B.n732 585
R427 B.n734 B.n87 585
R428 B.n736 B.n735 585
R429 B.n737 B.n86 585
R430 B.n739 B.n738 585
R431 B.n740 B.n85 585
R432 B.n742 B.n741 585
R433 B.n743 B.n84 585
R434 B.n745 B.n744 585
R435 B.n746 B.n83 585
R436 B.n748 B.n747 585
R437 B.n749 B.n82 585
R438 B.n751 B.n750 585
R439 B.n752 B.n81 585
R440 B.n754 B.n753 585
R441 B.n755 B.n80 585
R442 B.n757 B.n756 585
R443 B.n758 B.n79 585
R444 B.n760 B.n759 585
R445 B.n761 B.n78 585
R446 B.n763 B.n762 585
R447 B.n764 B.n77 585
R448 B.n766 B.n765 585
R449 B.n767 B.n76 585
R450 B.n769 B.n768 585
R451 B.n770 B.n75 585
R452 B.n772 B.n771 585
R453 B.n773 B.n74 585
R454 B.n775 B.n774 585
R455 B.n776 B.n73 585
R456 B.n778 B.n777 585
R457 B.n779 B.n72 585
R458 B.n781 B.n780 585
R459 B.n782 B.n71 585
R460 B.n784 B.n783 585
R461 B.n785 B.n70 585
R462 B.n787 B.n786 585
R463 B.n788 B.n67 585
R464 B.n791 B.n790 585
R465 B.n792 B.n66 585
R466 B.n794 B.n793 585
R467 B.n795 B.n65 585
R468 B.n797 B.n796 585
R469 B.n798 B.n64 585
R470 B.n800 B.n799 585
R471 B.n801 B.n63 585
R472 B.n803 B.n802 585
R473 B.n805 B.n804 585
R474 B.n806 B.n59 585
R475 B.n808 B.n807 585
R476 B.n809 B.n58 585
R477 B.n811 B.n810 585
R478 B.n812 B.n57 585
R479 B.n814 B.n813 585
R480 B.n815 B.n56 585
R481 B.n817 B.n816 585
R482 B.n818 B.n55 585
R483 B.n820 B.n819 585
R484 B.n821 B.n54 585
R485 B.n823 B.n822 585
R486 B.n824 B.n53 585
R487 B.n826 B.n825 585
R488 B.n827 B.n52 585
R489 B.n829 B.n828 585
R490 B.n830 B.n51 585
R491 B.n832 B.n831 585
R492 B.n833 B.n50 585
R493 B.n835 B.n834 585
R494 B.n836 B.n49 585
R495 B.n838 B.n837 585
R496 B.n839 B.n48 585
R497 B.n841 B.n840 585
R498 B.n842 B.n47 585
R499 B.n844 B.n843 585
R500 B.n845 B.n46 585
R501 B.n847 B.n846 585
R502 B.n848 B.n45 585
R503 B.n850 B.n849 585
R504 B.n851 B.n44 585
R505 B.n853 B.n852 585
R506 B.n854 B.n43 585
R507 B.n856 B.n855 585
R508 B.n857 B.n42 585
R509 B.n859 B.n858 585
R510 B.n860 B.n41 585
R511 B.n862 B.n861 585
R512 B.n863 B.n40 585
R513 B.n865 B.n864 585
R514 B.n727 B.n726 585
R515 B.n725 B.n90 585
R516 B.n724 B.n723 585
R517 B.n722 B.n91 585
R518 B.n721 B.n720 585
R519 B.n719 B.n92 585
R520 B.n718 B.n717 585
R521 B.n716 B.n93 585
R522 B.n715 B.n714 585
R523 B.n713 B.n94 585
R524 B.n712 B.n711 585
R525 B.n710 B.n95 585
R526 B.n709 B.n708 585
R527 B.n707 B.n96 585
R528 B.n706 B.n705 585
R529 B.n704 B.n97 585
R530 B.n703 B.n702 585
R531 B.n701 B.n98 585
R532 B.n700 B.n699 585
R533 B.n698 B.n99 585
R534 B.n697 B.n696 585
R535 B.n695 B.n100 585
R536 B.n694 B.n693 585
R537 B.n692 B.n101 585
R538 B.n691 B.n690 585
R539 B.n689 B.n102 585
R540 B.n688 B.n687 585
R541 B.n686 B.n103 585
R542 B.n685 B.n684 585
R543 B.n683 B.n104 585
R544 B.n682 B.n681 585
R545 B.n680 B.n105 585
R546 B.n679 B.n678 585
R547 B.n677 B.n106 585
R548 B.n676 B.n675 585
R549 B.n674 B.n107 585
R550 B.n673 B.n672 585
R551 B.n671 B.n108 585
R552 B.n670 B.n669 585
R553 B.n668 B.n109 585
R554 B.n667 B.n666 585
R555 B.n665 B.n110 585
R556 B.n664 B.n663 585
R557 B.n662 B.n111 585
R558 B.n661 B.n660 585
R559 B.n659 B.n112 585
R560 B.n658 B.n657 585
R561 B.n656 B.n113 585
R562 B.n655 B.n654 585
R563 B.n653 B.n114 585
R564 B.n652 B.n651 585
R565 B.n650 B.n115 585
R566 B.n649 B.n648 585
R567 B.n647 B.n116 585
R568 B.n646 B.n645 585
R569 B.n644 B.n117 585
R570 B.n643 B.n642 585
R571 B.n641 B.n118 585
R572 B.n640 B.n639 585
R573 B.n638 B.n119 585
R574 B.n637 B.n636 585
R575 B.n635 B.n120 585
R576 B.n634 B.n633 585
R577 B.n632 B.n121 585
R578 B.n631 B.n630 585
R579 B.n629 B.n122 585
R580 B.n628 B.n627 585
R581 B.n626 B.n123 585
R582 B.n625 B.n624 585
R583 B.n623 B.n124 585
R584 B.n622 B.n621 585
R585 B.n620 B.n125 585
R586 B.n619 B.n618 585
R587 B.n617 B.n126 585
R588 B.n616 B.n615 585
R589 B.n614 B.n127 585
R590 B.n613 B.n612 585
R591 B.n611 B.n128 585
R592 B.n610 B.n609 585
R593 B.n608 B.n129 585
R594 B.n607 B.n606 585
R595 B.n605 B.n130 585
R596 B.n604 B.n603 585
R597 B.n602 B.n131 585
R598 B.n601 B.n600 585
R599 B.n599 B.n132 585
R600 B.n598 B.n597 585
R601 B.n596 B.n133 585
R602 B.n595 B.n594 585
R603 B.n593 B.n134 585
R604 B.n592 B.n591 585
R605 B.n590 B.n135 585
R606 B.n589 B.n588 585
R607 B.n587 B.n136 585
R608 B.n586 B.n585 585
R609 B.n584 B.n137 585
R610 B.n583 B.n582 585
R611 B.n581 B.n138 585
R612 B.n580 B.n579 585
R613 B.n578 B.n139 585
R614 B.n577 B.n576 585
R615 B.n575 B.n140 585
R616 B.n574 B.n573 585
R617 B.n572 B.n141 585
R618 B.n571 B.n570 585
R619 B.n569 B.n142 585
R620 B.n568 B.n567 585
R621 B.n566 B.n143 585
R622 B.n565 B.n564 585
R623 B.n563 B.n144 585
R624 B.n562 B.n561 585
R625 B.n560 B.n145 585
R626 B.n559 B.n558 585
R627 B.n557 B.n146 585
R628 B.n556 B.n555 585
R629 B.n554 B.n147 585
R630 B.n553 B.n552 585
R631 B.n551 B.n148 585
R632 B.n550 B.n549 585
R633 B.n548 B.n149 585
R634 B.n547 B.n546 585
R635 B.n545 B.n150 585
R636 B.n544 B.n543 585
R637 B.n542 B.n151 585
R638 B.n541 B.n540 585
R639 B.n539 B.n152 585
R640 B.n538 B.n537 585
R641 B.n536 B.n153 585
R642 B.n535 B.n534 585
R643 B.n533 B.n154 585
R644 B.n532 B.n531 585
R645 B.n530 B.n155 585
R646 B.n529 B.n528 585
R647 B.n527 B.n156 585
R648 B.n526 B.n525 585
R649 B.n524 B.n157 585
R650 B.n523 B.n522 585
R651 B.n521 B.n158 585
R652 B.n520 B.n519 585
R653 B.n518 B.n159 585
R654 B.n517 B.n516 585
R655 B.n515 B.n160 585
R656 B.n514 B.n513 585
R657 B.n512 B.n161 585
R658 B.n511 B.n510 585
R659 B.n509 B.n162 585
R660 B.n508 B.n507 585
R661 B.n506 B.n163 585
R662 B.n505 B.n504 585
R663 B.n503 B.n164 585
R664 B.n502 B.n501 585
R665 B.n364 B.n363 585
R666 B.n365 B.n214 585
R667 B.n367 B.n366 585
R668 B.n368 B.n213 585
R669 B.n370 B.n369 585
R670 B.n371 B.n212 585
R671 B.n373 B.n372 585
R672 B.n374 B.n211 585
R673 B.n376 B.n375 585
R674 B.n377 B.n210 585
R675 B.n379 B.n378 585
R676 B.n380 B.n209 585
R677 B.n382 B.n381 585
R678 B.n383 B.n208 585
R679 B.n385 B.n384 585
R680 B.n386 B.n207 585
R681 B.n388 B.n387 585
R682 B.n389 B.n206 585
R683 B.n391 B.n390 585
R684 B.n392 B.n205 585
R685 B.n394 B.n393 585
R686 B.n395 B.n204 585
R687 B.n397 B.n396 585
R688 B.n398 B.n203 585
R689 B.n400 B.n399 585
R690 B.n401 B.n202 585
R691 B.n403 B.n402 585
R692 B.n404 B.n201 585
R693 B.n406 B.n405 585
R694 B.n407 B.n200 585
R695 B.n409 B.n408 585
R696 B.n410 B.n199 585
R697 B.n412 B.n411 585
R698 B.n413 B.n198 585
R699 B.n415 B.n414 585
R700 B.n416 B.n197 585
R701 B.n418 B.n417 585
R702 B.n419 B.n196 585
R703 B.n421 B.n420 585
R704 B.n422 B.n195 585
R705 B.n424 B.n423 585
R706 B.n426 B.n425 585
R707 B.n427 B.n191 585
R708 B.n429 B.n428 585
R709 B.n430 B.n190 585
R710 B.n432 B.n431 585
R711 B.n433 B.n189 585
R712 B.n435 B.n434 585
R713 B.n436 B.n188 585
R714 B.n438 B.n437 585
R715 B.n440 B.n185 585
R716 B.n442 B.n441 585
R717 B.n443 B.n184 585
R718 B.n445 B.n444 585
R719 B.n446 B.n183 585
R720 B.n448 B.n447 585
R721 B.n449 B.n182 585
R722 B.n451 B.n450 585
R723 B.n452 B.n181 585
R724 B.n454 B.n453 585
R725 B.n455 B.n180 585
R726 B.n457 B.n456 585
R727 B.n458 B.n179 585
R728 B.n460 B.n459 585
R729 B.n461 B.n178 585
R730 B.n463 B.n462 585
R731 B.n464 B.n177 585
R732 B.n466 B.n465 585
R733 B.n467 B.n176 585
R734 B.n469 B.n468 585
R735 B.n470 B.n175 585
R736 B.n472 B.n471 585
R737 B.n473 B.n174 585
R738 B.n475 B.n474 585
R739 B.n476 B.n173 585
R740 B.n478 B.n477 585
R741 B.n479 B.n172 585
R742 B.n481 B.n480 585
R743 B.n482 B.n171 585
R744 B.n484 B.n483 585
R745 B.n485 B.n170 585
R746 B.n487 B.n486 585
R747 B.n488 B.n169 585
R748 B.n490 B.n489 585
R749 B.n491 B.n168 585
R750 B.n493 B.n492 585
R751 B.n494 B.n167 585
R752 B.n496 B.n495 585
R753 B.n497 B.n166 585
R754 B.n499 B.n498 585
R755 B.n500 B.n165 585
R756 B.n362 B.n215 585
R757 B.n361 B.n360 585
R758 B.n359 B.n216 585
R759 B.n358 B.n357 585
R760 B.n356 B.n217 585
R761 B.n355 B.n354 585
R762 B.n353 B.n218 585
R763 B.n352 B.n351 585
R764 B.n350 B.n219 585
R765 B.n349 B.n348 585
R766 B.n347 B.n220 585
R767 B.n346 B.n345 585
R768 B.n344 B.n221 585
R769 B.n343 B.n342 585
R770 B.n341 B.n222 585
R771 B.n340 B.n339 585
R772 B.n338 B.n223 585
R773 B.n337 B.n336 585
R774 B.n335 B.n224 585
R775 B.n334 B.n333 585
R776 B.n332 B.n225 585
R777 B.n331 B.n330 585
R778 B.n329 B.n226 585
R779 B.n328 B.n327 585
R780 B.n326 B.n227 585
R781 B.n325 B.n324 585
R782 B.n323 B.n228 585
R783 B.n322 B.n321 585
R784 B.n320 B.n229 585
R785 B.n319 B.n318 585
R786 B.n317 B.n230 585
R787 B.n316 B.n315 585
R788 B.n314 B.n231 585
R789 B.n313 B.n312 585
R790 B.n311 B.n232 585
R791 B.n310 B.n309 585
R792 B.n308 B.n233 585
R793 B.n307 B.n306 585
R794 B.n305 B.n234 585
R795 B.n304 B.n303 585
R796 B.n302 B.n235 585
R797 B.n301 B.n300 585
R798 B.n299 B.n236 585
R799 B.n298 B.n297 585
R800 B.n296 B.n237 585
R801 B.n295 B.n294 585
R802 B.n293 B.n238 585
R803 B.n292 B.n291 585
R804 B.n290 B.n239 585
R805 B.n289 B.n288 585
R806 B.n287 B.n240 585
R807 B.n286 B.n285 585
R808 B.n284 B.n241 585
R809 B.n283 B.n282 585
R810 B.n281 B.n242 585
R811 B.n280 B.n279 585
R812 B.n278 B.n243 585
R813 B.n277 B.n276 585
R814 B.n275 B.n244 585
R815 B.n274 B.n273 585
R816 B.n272 B.n245 585
R817 B.n271 B.n270 585
R818 B.n269 B.n246 585
R819 B.n268 B.n267 585
R820 B.n266 B.n247 585
R821 B.n265 B.n264 585
R822 B.n263 B.n248 585
R823 B.n262 B.n261 585
R824 B.n260 B.n249 585
R825 B.n259 B.n258 585
R826 B.n257 B.n250 585
R827 B.n256 B.n255 585
R828 B.n254 B.n251 585
R829 B.n253 B.n252 585
R830 B.n2 B.n0 585
R831 B.n977 B.n1 585
R832 B.n976 B.n975 585
R833 B.n974 B.n3 585
R834 B.n973 B.n972 585
R835 B.n971 B.n4 585
R836 B.n970 B.n969 585
R837 B.n968 B.n5 585
R838 B.n967 B.n966 585
R839 B.n965 B.n6 585
R840 B.n964 B.n963 585
R841 B.n962 B.n7 585
R842 B.n961 B.n960 585
R843 B.n959 B.n8 585
R844 B.n958 B.n957 585
R845 B.n956 B.n9 585
R846 B.n955 B.n954 585
R847 B.n953 B.n10 585
R848 B.n952 B.n951 585
R849 B.n950 B.n11 585
R850 B.n949 B.n948 585
R851 B.n947 B.n12 585
R852 B.n946 B.n945 585
R853 B.n944 B.n13 585
R854 B.n943 B.n942 585
R855 B.n941 B.n14 585
R856 B.n940 B.n939 585
R857 B.n938 B.n15 585
R858 B.n937 B.n936 585
R859 B.n935 B.n16 585
R860 B.n934 B.n933 585
R861 B.n932 B.n17 585
R862 B.n931 B.n930 585
R863 B.n929 B.n18 585
R864 B.n928 B.n927 585
R865 B.n926 B.n19 585
R866 B.n925 B.n924 585
R867 B.n923 B.n20 585
R868 B.n922 B.n921 585
R869 B.n920 B.n21 585
R870 B.n919 B.n918 585
R871 B.n917 B.n22 585
R872 B.n916 B.n915 585
R873 B.n914 B.n23 585
R874 B.n913 B.n912 585
R875 B.n911 B.n24 585
R876 B.n910 B.n909 585
R877 B.n908 B.n25 585
R878 B.n907 B.n906 585
R879 B.n905 B.n26 585
R880 B.n904 B.n903 585
R881 B.n902 B.n27 585
R882 B.n901 B.n900 585
R883 B.n899 B.n28 585
R884 B.n898 B.n897 585
R885 B.n896 B.n29 585
R886 B.n895 B.n894 585
R887 B.n893 B.n30 585
R888 B.n892 B.n891 585
R889 B.n890 B.n31 585
R890 B.n889 B.n888 585
R891 B.n887 B.n32 585
R892 B.n886 B.n885 585
R893 B.n884 B.n33 585
R894 B.n883 B.n882 585
R895 B.n881 B.n34 585
R896 B.n880 B.n879 585
R897 B.n878 B.n35 585
R898 B.n877 B.n876 585
R899 B.n875 B.n36 585
R900 B.n874 B.n873 585
R901 B.n872 B.n37 585
R902 B.n871 B.n870 585
R903 B.n869 B.n38 585
R904 B.n868 B.n867 585
R905 B.n866 B.n39 585
R906 B.n979 B.n978 585
R907 B.n364 B.n215 506.916
R908 B.n864 B.n39 506.916
R909 B.n502 B.n165 506.916
R910 B.n726 B.n89 506.916
R911 B.n186 B.t9 291.269
R912 B.n192 B.t3 291.269
R913 B.n60 B.t6 291.269
R914 B.n68 B.t0 291.269
R915 B.n186 B.t11 184.542
R916 B.n68 B.t1 184.542
R917 B.n192 B.t5 184.528
R918 B.n60 B.t7 184.528
R919 B.n360 B.n215 163.367
R920 B.n360 B.n359 163.367
R921 B.n359 B.n358 163.367
R922 B.n358 B.n217 163.367
R923 B.n354 B.n217 163.367
R924 B.n354 B.n353 163.367
R925 B.n353 B.n352 163.367
R926 B.n352 B.n219 163.367
R927 B.n348 B.n219 163.367
R928 B.n348 B.n347 163.367
R929 B.n347 B.n346 163.367
R930 B.n346 B.n221 163.367
R931 B.n342 B.n221 163.367
R932 B.n342 B.n341 163.367
R933 B.n341 B.n340 163.367
R934 B.n340 B.n223 163.367
R935 B.n336 B.n223 163.367
R936 B.n336 B.n335 163.367
R937 B.n335 B.n334 163.367
R938 B.n334 B.n225 163.367
R939 B.n330 B.n225 163.367
R940 B.n330 B.n329 163.367
R941 B.n329 B.n328 163.367
R942 B.n328 B.n227 163.367
R943 B.n324 B.n227 163.367
R944 B.n324 B.n323 163.367
R945 B.n323 B.n322 163.367
R946 B.n322 B.n229 163.367
R947 B.n318 B.n229 163.367
R948 B.n318 B.n317 163.367
R949 B.n317 B.n316 163.367
R950 B.n316 B.n231 163.367
R951 B.n312 B.n231 163.367
R952 B.n312 B.n311 163.367
R953 B.n311 B.n310 163.367
R954 B.n310 B.n233 163.367
R955 B.n306 B.n233 163.367
R956 B.n306 B.n305 163.367
R957 B.n305 B.n304 163.367
R958 B.n304 B.n235 163.367
R959 B.n300 B.n235 163.367
R960 B.n300 B.n299 163.367
R961 B.n299 B.n298 163.367
R962 B.n298 B.n237 163.367
R963 B.n294 B.n237 163.367
R964 B.n294 B.n293 163.367
R965 B.n293 B.n292 163.367
R966 B.n292 B.n239 163.367
R967 B.n288 B.n239 163.367
R968 B.n288 B.n287 163.367
R969 B.n287 B.n286 163.367
R970 B.n286 B.n241 163.367
R971 B.n282 B.n241 163.367
R972 B.n282 B.n281 163.367
R973 B.n281 B.n280 163.367
R974 B.n280 B.n243 163.367
R975 B.n276 B.n243 163.367
R976 B.n276 B.n275 163.367
R977 B.n275 B.n274 163.367
R978 B.n274 B.n245 163.367
R979 B.n270 B.n245 163.367
R980 B.n270 B.n269 163.367
R981 B.n269 B.n268 163.367
R982 B.n268 B.n247 163.367
R983 B.n264 B.n247 163.367
R984 B.n264 B.n263 163.367
R985 B.n263 B.n262 163.367
R986 B.n262 B.n249 163.367
R987 B.n258 B.n249 163.367
R988 B.n258 B.n257 163.367
R989 B.n257 B.n256 163.367
R990 B.n256 B.n251 163.367
R991 B.n252 B.n251 163.367
R992 B.n252 B.n2 163.367
R993 B.n978 B.n2 163.367
R994 B.n978 B.n977 163.367
R995 B.n977 B.n976 163.367
R996 B.n976 B.n3 163.367
R997 B.n972 B.n3 163.367
R998 B.n972 B.n971 163.367
R999 B.n971 B.n970 163.367
R1000 B.n970 B.n5 163.367
R1001 B.n966 B.n5 163.367
R1002 B.n966 B.n965 163.367
R1003 B.n965 B.n964 163.367
R1004 B.n964 B.n7 163.367
R1005 B.n960 B.n7 163.367
R1006 B.n960 B.n959 163.367
R1007 B.n959 B.n958 163.367
R1008 B.n958 B.n9 163.367
R1009 B.n954 B.n9 163.367
R1010 B.n954 B.n953 163.367
R1011 B.n953 B.n952 163.367
R1012 B.n952 B.n11 163.367
R1013 B.n948 B.n11 163.367
R1014 B.n948 B.n947 163.367
R1015 B.n947 B.n946 163.367
R1016 B.n946 B.n13 163.367
R1017 B.n942 B.n13 163.367
R1018 B.n942 B.n941 163.367
R1019 B.n941 B.n940 163.367
R1020 B.n940 B.n15 163.367
R1021 B.n936 B.n15 163.367
R1022 B.n936 B.n935 163.367
R1023 B.n935 B.n934 163.367
R1024 B.n934 B.n17 163.367
R1025 B.n930 B.n17 163.367
R1026 B.n930 B.n929 163.367
R1027 B.n929 B.n928 163.367
R1028 B.n928 B.n19 163.367
R1029 B.n924 B.n19 163.367
R1030 B.n924 B.n923 163.367
R1031 B.n923 B.n922 163.367
R1032 B.n922 B.n21 163.367
R1033 B.n918 B.n21 163.367
R1034 B.n918 B.n917 163.367
R1035 B.n917 B.n916 163.367
R1036 B.n916 B.n23 163.367
R1037 B.n912 B.n23 163.367
R1038 B.n912 B.n911 163.367
R1039 B.n911 B.n910 163.367
R1040 B.n910 B.n25 163.367
R1041 B.n906 B.n25 163.367
R1042 B.n906 B.n905 163.367
R1043 B.n905 B.n904 163.367
R1044 B.n904 B.n27 163.367
R1045 B.n900 B.n27 163.367
R1046 B.n900 B.n899 163.367
R1047 B.n899 B.n898 163.367
R1048 B.n898 B.n29 163.367
R1049 B.n894 B.n29 163.367
R1050 B.n894 B.n893 163.367
R1051 B.n893 B.n892 163.367
R1052 B.n892 B.n31 163.367
R1053 B.n888 B.n31 163.367
R1054 B.n888 B.n887 163.367
R1055 B.n887 B.n886 163.367
R1056 B.n886 B.n33 163.367
R1057 B.n882 B.n33 163.367
R1058 B.n882 B.n881 163.367
R1059 B.n881 B.n880 163.367
R1060 B.n880 B.n35 163.367
R1061 B.n876 B.n35 163.367
R1062 B.n876 B.n875 163.367
R1063 B.n875 B.n874 163.367
R1064 B.n874 B.n37 163.367
R1065 B.n870 B.n37 163.367
R1066 B.n870 B.n869 163.367
R1067 B.n869 B.n868 163.367
R1068 B.n868 B.n39 163.367
R1069 B.n365 B.n364 163.367
R1070 B.n366 B.n365 163.367
R1071 B.n366 B.n213 163.367
R1072 B.n370 B.n213 163.367
R1073 B.n371 B.n370 163.367
R1074 B.n372 B.n371 163.367
R1075 B.n372 B.n211 163.367
R1076 B.n376 B.n211 163.367