* SPICE3 file created from cryoInst.ext - technology: sky130A

.subckt cryoInst EBL OUT
C0 sky130_fd_sc_hd__inv_1_88/VPB sky130_fd_sc_hd__inv_1_114/Y 2.33fF
C1 sky130_fd_sc_hd__dfxtp_1_9/a_27_47# sky130_fd_sc_hd__dfxtp_1_9/a_193_47# 2.23fF
C2 sky130_fd_sc_hd__dfxtp_1_1/a_27_47# sky130_fd_sc_hd__dfxtp_1_1/a_193_47# 2.23fF
C3 sky130_fd_sc_hd__inv_1_130/Y OUT 2.44fF
C4 sky130_fd_sc_hd__dfxtp_1_8/a_27_47# sky130_fd_sc_hd__dfxtp_1_8/a_193_47# 2.23fF
C5 sky130_fd_sc_hd__dfxtp_1_7/a_27_47# sky130_fd_sc_hd__dfxtp_1_7/a_193_47# 2.23fF
C6 sky130_fd_sc_hd__dfxtp_1_3/a_193_47# sky130_fd_sc_hd__dfxtp_1_3/a_27_47# 2.23fF
C7 sky130_fd_sc_hd__inv_1_135/Y sky130_fd_sc_hd__inv_1_0/VPB 3.10fF
C8 sky130_fd_sc_hd__dfxtp_1_6/a_193_47# sky130_fd_sc_hd__dfxtp_1_6/a_27_47# 2.23fF
C9 sky130_fd_sc_hd__dfxtp_1_4/a_27_47# sky130_fd_sc_hd__dfxtp_1_4/a_193_47# 2.23fF
C10 sky130_fd_sc_hd__dfxtp_1_2/a_193_47# sky130_fd_sc_hd__dfxtp_1_2/a_27_47# 2.23fF
C11 sky130_fd_sc_hd__dfxtp_1_0/a_27_47# sky130_fd_sc_hd__dfxtp_1_0/a_193_47# 2.23fF
C12 sky130_fd_sc_hd__dfxtp_1_5/a_27_47# sky130_fd_sc_hd__dfxtp_1_5/a_193_47# 2.23fF
Xsky130_fd_sc_hd__fill_8_53 VSUBS sky130_fd_sc_hd__inv_1_99/VPB VSUBS sky130_fd_sc_hd__inv_1_99/VPB
+ sky130_fd_sc_hd__fill_8
Xsky130_fd_sc_hd__fill_8_42 VSUBS sky130_fd_sc_hd__inv_1_88/VPB VSUBS sky130_fd_sc_hd__inv_1_88/VPB
+ sky130_fd_sc_hd__fill_8
Xsky130_fd_sc_hd__fill_8_64 VSUBS sky130_fd_sc_hd__inv_1_0/VPB VSUBS sky130_fd_sc_hd__inv_1_0/VPB
+ sky130_fd_sc_hd__fill_8
Xsky130_fd_sc_hd__fill_8_20 VSUBS sky130_fd_sc_hd__inv_1_9/VPB VSUBS sky130_fd_sc_hd__inv_1_9/VPB
+ sky130_fd_sc_hd__fill_8
Xsky130_fd_sc_hd__fill_8_31 VSUBS sky130_fd_sc_hd__inv_1_53/VPB VSUBS sky130_fd_sc_hd__inv_1_53/VPB
+ sky130_fd_sc_hd__fill_8
Xsky130_fd_sc_hd__dfxtp_1_4 sky130_fd_sc_hd__inv_1_113/A sky130_fd_sc_hd__inv_1_137/A
+ sky130_fd_sc_hd__inv_1_113/Y sky130_fd_sc_hd__inv_1_99/VPB VSUBS VSUBS sky130_fd_sc_hd__inv_1_99/VPB
+ sky130_fd_sc_hd__dfxtp_1
Xsky130_fd_sc_hd__fill_1_139 sky130_fd_sc_hd__inv_1_89/VPB VSUBS VSUBS sky130_fd_sc_hd__inv_1_89/VPB
+ sky130_fd_sc_hd__fill_1
Xsky130_fd_sc_hd__fill_1_106 sky130_fd_sc_hd__inv_1_89/VPB VSUBS VSUBS sky130_fd_sc_hd__inv_1_89/VPB
+ sky130_fd_sc_hd__fill_1
Xsky130_fd_sc_hd__fill_1_128 sky130_fd_sc_hd__inv_1_99/VPB VSUBS VSUBS sky130_fd_sc_hd__inv_1_99/VPB
+ sky130_fd_sc_hd__fill_1
Xsky130_fd_sc_hd__fill_1_117 sky130_fd_sc_hd__inv_1_99/VPB VSUBS VSUBS sky130_fd_sc_hd__inv_1_99/VPB
+ sky130_fd_sc_hd__fill_1
Xsky130_fd_sc_hd__inv_1_4 sky130_fd_sc_hd__inv_1_4/Y sky130_fd_sc_hd__inv_1_4/A VSUBS
+ sky130_fd_sc_hd__inv_1_9/VPB VSUBS sky130_fd_sc_hd__inv_1_9/VPB sky130_fd_sc_hd__inv_1
Xsky130_fd_sc_hd__inv_1_59 sky130_fd_sc_hd__inv_1_59/Y sky130_fd_sc_hd__inv_1_88/Y
+ VSUBS sky130_fd_sc_hd__inv_1_88/VPB VSUBS sky130_fd_sc_hd__inv_1_88/VPB sky130_fd_sc_hd__inv_1
Xsky130_fd_sc_hd__inv_1_26 sky130_fd_sc_hd__inv_1_31/A sky130_fd_sc_hd__inv_1_27/Y
+ VSUBS sky130_fd_sc_hd__inv_1_0/VPB VSUBS sky130_fd_sc_hd__inv_1_0/VPB sky130_fd_sc_hd__inv_1
Xsky130_fd_sc_hd__inv_1_15 sky130_fd_sc_hd__inv_1_15/Y sky130_fd_sc_hd__inv_1_16/A
+ VSUBS sky130_fd_sc_hd__inv_1_9/VPB VSUBS sky130_fd_sc_hd__inv_1_9/VPB sky130_fd_sc_hd__inv_1
Xsky130_fd_sc_hd__inv_1_37 sky130_fd_sc_hd__inv_1_41/A sky130_fd_sc_hd__inv_1_37/A
+ VSUBS sky130_fd_sc_hd__inv_1_53/VPB VSUBS sky130_fd_sc_hd__inv_1_53/VPB sky130_fd_sc_hd__inv_1
Xsky130_fd_sc_hd__inv_1_48 sky130_fd_sc_hd__inv_1_49/A sky130_fd_sc_hd__inv_1_48/A
+ VSUBS sky130_fd_sc_hd__inv_1_53/VPB VSUBS sky130_fd_sc_hd__inv_1_53/VPB sky130_fd_sc_hd__inv_1
Xsky130_fd_sc_hd__fill_2_88 VSUBS sky130_fd_sc_hd__inv_1_89/VPB VSUBS sky130_fd_sc_hd__inv_1_89/VPB
+ sky130_fd_sc_hd__fill_2
Xsky130_fd_sc_hd__fill_2_77 VSUBS sky130_fd_sc_hd__inv_1_89/VPB VSUBS sky130_fd_sc_hd__inv_1_89/VPB
+ sky130_fd_sc_hd__fill_2
Xsky130_fd_sc_hd__fill_2_99 VSUBS sky130_fd_sc_hd__inv_1_99/VPB VSUBS sky130_fd_sc_hd__inv_1_99/VPB
+ sky130_fd_sc_hd__fill_2
Xsky130_fd_sc_hd__fill_2_66 VSUBS sky130_fd_sc_hd__inv_1_88/VPB VSUBS sky130_fd_sc_hd__inv_1_88/VPB
+ sky130_fd_sc_hd__fill_2
Xsky130_fd_sc_hd__fill_2_22 VSUBS sky130_fd_sc_hd__inv_1_9/VPB VSUBS sky130_fd_sc_hd__inv_1_9/VPB
+ sky130_fd_sc_hd__fill_2
Xsky130_fd_sc_hd__fill_2_55 VSUBS sky130_fd_sc_hd__inv_1_53/VPB VSUBS sky130_fd_sc_hd__inv_1_53/VPB
+ sky130_fd_sc_hd__fill_2
Xsky130_fd_sc_hd__fill_2_11 VSUBS sky130_fd_sc_hd__inv_1_53/VPB VSUBS sky130_fd_sc_hd__inv_1_53/VPB
+ sky130_fd_sc_hd__fill_2
Xsky130_fd_sc_hd__fill_2_44 VSUBS sky130_fd_sc_hd__inv_1_53/VPB VSUBS sky130_fd_sc_hd__inv_1_53/VPB
+ sky130_fd_sc_hd__fill_2
Xsky130_fd_sc_hd__fill_2_33 VSUBS sky130_fd_sc_hd__inv_1_0/VPB VSUBS sky130_fd_sc_hd__inv_1_0/VPB
+ sky130_fd_sc_hd__fill_2
Xsky130_fd_sc_hd__fill_1_1 sky130_fd_sc_hd__inv_1_0/VPB VSUBS VSUBS sky130_fd_sc_hd__inv_1_0/VPB
+ sky130_fd_sc_hd__fill_1
Xsky130_fd_sc_hd__fill_8_43 VSUBS sky130_fd_sc_hd__inv_1_89/VPB VSUBS sky130_fd_sc_hd__inv_1_89/VPB
+ sky130_fd_sc_hd__fill_8
Xsky130_fd_sc_hd__fill_8_54 VSUBS sky130_fd_sc_hd__inv_1_99/VPB VSUBS sky130_fd_sc_hd__inv_1_99/VPB
+ sky130_fd_sc_hd__fill_8
Xsky130_fd_sc_hd__fill_8_32 VSUBS sky130_fd_sc_hd__inv_1_88/VPB VSUBS sky130_fd_sc_hd__inv_1_88/VPB
+ sky130_fd_sc_hd__fill_8
Xsky130_fd_sc_hd__fill_8_65 VSUBS sky130_fd_sc_hd__inv_1_0/VPB VSUBS sky130_fd_sc_hd__inv_1_0/VPB
+ sky130_fd_sc_hd__fill_8
Xsky130_fd_sc_hd__fill_8_21 VSUBS sky130_fd_sc_hd__inv_1_0/VPB VSUBS sky130_fd_sc_hd__inv_1_0/VPB
+ sky130_fd_sc_hd__fill_8
Xsky130_fd_sc_hd__fill_8_10 VSUBS sky130_fd_sc_hd__inv_1_53/VPB VSUBS sky130_fd_sc_hd__inv_1_53/VPB
+ sky130_fd_sc_hd__fill_8
Xsky130_fd_sc_hd__dfxtp_1_5 sky130_fd_sc_hd__inv_1_115/A sky130_fd_sc_hd__inv_1_134/A
+ sky130_fd_sc_hd__inv_1_115/Y sky130_fd_sc_hd__inv_1_88/VPB VSUBS VSUBS sky130_fd_sc_hd__inv_1_88/VPB
+ sky130_fd_sc_hd__dfxtp_1
Xsky130_fd_sc_hd__fill_1_107 sky130_fd_sc_hd__inv_1_89/VPB VSUBS VSUBS sky130_fd_sc_hd__inv_1_89/VPB
+ sky130_fd_sc_hd__fill_1
Xsky130_fd_sc_hd__fill_1_129 sky130_fd_sc_hd__inv_1_99/VPB VSUBS VSUBS sky130_fd_sc_hd__inv_1_99/VPB
+ sky130_fd_sc_hd__fill_1
Xsky130_fd_sc_hd__fill_1_118 sky130_fd_sc_hd__inv_1_99/VPB VSUBS VSUBS sky130_fd_sc_hd__inv_1_99/VPB
+ sky130_fd_sc_hd__fill_1
Xsky130_fd_sc_hd__inv_1_5 sky130_fd_sc_hd__inv_1_5/Y sky130_fd_sc_hd__inv_1_6/Y VSUBS
+ sky130_fd_sc_hd__inv_1_9/VPB VSUBS sky130_fd_sc_hd__inv_1_9/VPB sky130_fd_sc_hd__inv_1
Xsky130_fd_sc_hd__inv_1_27 sky130_fd_sc_hd__inv_1_27/Y sky130_fd_sc_hd__inv_1_28/Y
+ VSUBS sky130_fd_sc_hd__inv_1_0/VPB VSUBS sky130_fd_sc_hd__inv_1_0/VPB sky130_fd_sc_hd__inv_1
Xsky130_fd_sc_hd__inv_1_16 sky130_fd_sc_hd__inv_1_16/Y sky130_fd_sc_hd__inv_1_16/A
+ VSUBS sky130_fd_sc_hd__inv_1_9/VPB VSUBS sky130_fd_sc_hd__inv_1_9/VPB sky130_fd_sc_hd__inv_1
Xsky130_fd_sc_hd__inv_1_38 sky130_fd_sc_hd__inv_1_39/A sky130_fd_sc_hd__inv_1_41/Y
+ VSUBS sky130_fd_sc_hd__inv_1_53/VPB VSUBS sky130_fd_sc_hd__inv_1_53/VPB sky130_fd_sc_hd__inv_1
Xsky130_fd_sc_hd__inv_1_49 sky130_fd_sc_hd__inv_1_50/A sky130_fd_sc_hd__inv_1_49/A
+ VSUBS sky130_fd_sc_hd__inv_1_53/VPB VSUBS sky130_fd_sc_hd__inv_1_53/VPB sky130_fd_sc_hd__inv_1
Xsky130_fd_sc_hd__fill_2_89 VSUBS sky130_fd_sc_hd__inv_1_89/VPB VSUBS sky130_fd_sc_hd__inv_1_89/VPB
+ sky130_fd_sc_hd__fill_2
Xsky130_fd_sc_hd__fill_2_78 VSUBS sky130_fd_sc_hd__inv_1_89/VPB VSUBS sky130_fd_sc_hd__inv_1_89/VPB
+ sky130_fd_sc_hd__fill_2
Xsky130_fd_sc_hd__fill_2_67 VSUBS sky130_fd_sc_hd__inv_1_88/VPB VSUBS sky130_fd_sc_hd__inv_1_88/VPB
+ sky130_fd_sc_hd__fill_2
Xsky130_fd_sc_hd__fill_2_12 VSUBS sky130_fd_sc_hd__inv_1_9/VPB VSUBS sky130_fd_sc_hd__inv_1_9/VPB
+ sky130_fd_sc_hd__fill_2
Xsky130_fd_sc_hd__fill_2_23 VSUBS sky130_fd_sc_hd__inv_1_9/VPB VSUBS sky130_fd_sc_hd__inv_1_9/VPB
+ sky130_fd_sc_hd__fill_2
Xsky130_fd_sc_hd__fill_2_56 VSUBS sky130_fd_sc_hd__inv_1_53/VPB VSUBS sky130_fd_sc_hd__inv_1_53/VPB
+ sky130_fd_sc_hd__fill_2
Xsky130_fd_sc_hd__fill_2_45 VSUBS sky130_fd_sc_hd__inv_1_53/VPB VSUBS sky130_fd_sc_hd__inv_1_53/VPB
+ sky130_fd_sc_hd__fill_2
Xsky130_fd_sc_hd__fill_2_34 VSUBS sky130_fd_sc_hd__inv_1_0/VPB VSUBS sky130_fd_sc_hd__inv_1_0/VPB
+ sky130_fd_sc_hd__fill_2
Xsky130_fd_sc_hd__fill_1_2 sky130_fd_sc_hd__inv_1_0/VPB VSUBS VSUBS sky130_fd_sc_hd__inv_1_0/VPB
+ sky130_fd_sc_hd__fill_1
Xsky130_fd_sc_hd__fill_8_33 VSUBS sky130_fd_sc_hd__inv_1_89/VPB VSUBS sky130_fd_sc_hd__inv_1_89/VPB
+ sky130_fd_sc_hd__fill_8
Xsky130_fd_sc_hd__fill_8_44 VSUBS sky130_fd_sc_hd__inv_1_99/VPB VSUBS sky130_fd_sc_hd__inv_1_99/VPB
+ sky130_fd_sc_hd__fill_8
Xsky130_fd_sc_hd__fill_8_55 VSUBS sky130_fd_sc_hd__inv_1_99/VPB VSUBS sky130_fd_sc_hd__inv_1_99/VPB
+ sky130_fd_sc_hd__fill_8
Xsky130_fd_sc_hd__fill_8_66 VSUBS sky130_fd_sc_hd__inv_1_0/VPB VSUBS sky130_fd_sc_hd__inv_1_0/VPB
+ sky130_fd_sc_hd__fill_8
Xsky130_fd_sc_hd__fill_8_22 VSUBS sky130_fd_sc_hd__inv_1_9/VPB VSUBS sky130_fd_sc_hd__inv_1_9/VPB
+ sky130_fd_sc_hd__fill_8
Xsky130_fd_sc_hd__fill_8_11 VSUBS sky130_fd_sc_hd__inv_1_53/VPB VSUBS sky130_fd_sc_hd__inv_1_53/VPB
+ sky130_fd_sc_hd__fill_8
Xsky130_fd_sc_hd__dfxtp_1_6 OUT sky130_fd_sc_hd__inv_1_135/A sky130_fd_sc_hd__inv_1_130/Y
+ sky130_fd_sc_hd__inv_1_89/VPB VSUBS VSUBS sky130_fd_sc_hd__inv_1_89/VPB sky130_fd_sc_hd__dfxtp_1
Xsky130_fd_sc_hd__fill_1_108 sky130_fd_sc_hd__inv_1_89/VPB VSUBS VSUBS sky130_fd_sc_hd__inv_1_89/VPB
+ sky130_fd_sc_hd__fill_1
Xsky130_fd_sc_hd__fill_1_119 sky130_fd_sc_hd__inv_1_99/VPB VSUBS VSUBS sky130_fd_sc_hd__inv_1_99/VPB
+ sky130_fd_sc_hd__fill_1
Xsky130_fd_sc_hd__inv_1_6 sky130_fd_sc_hd__inv_1_6/Y sky130_fd_sc_hd__inv_1_7/Y VSUBS
+ sky130_fd_sc_hd__inv_1_9/VPB VSUBS sky130_fd_sc_hd__inv_1_9/VPB sky130_fd_sc_hd__inv_1
Xsky130_fd_sc_hd__inv_1_28 sky130_fd_sc_hd__inv_1_28/Y sky130_fd_sc_hd__inv_1_29/Y
+ VSUBS sky130_fd_sc_hd__inv_1_0/VPB VSUBS sky130_fd_sc_hd__inv_1_0/VPB sky130_fd_sc_hd__inv_1
Xsky130_fd_sc_hd__inv_1_17 sky130_fd_sc_hd__inv_1_17/Y sky130_fd_sc_hd__inv_1_18/Y
+ VSUBS sky130_fd_sc_hd__inv_1_9/VPB VSUBS sky130_fd_sc_hd__inv_1_9/VPB sky130_fd_sc_hd__inv_1
Xsky130_fd_sc_hd__inv_1_39 sky130_fd_sc_hd__inv_1_42/A sky130_fd_sc_hd__inv_1_39/A
+ VSUBS sky130_fd_sc_hd__inv_1_53/VPB VSUBS sky130_fd_sc_hd__inv_1_53/VPB sky130_fd_sc_hd__inv_1
Xsky130_fd_sc_hd__fill_2_79 VSUBS sky130_fd_sc_hd__inv_1_89/VPB VSUBS sky130_fd_sc_hd__inv_1_89/VPB
+ sky130_fd_sc_hd__fill_2
Xsky130_fd_sc_hd__fill_2_68 VSUBS sky130_fd_sc_hd__inv_1_88/VPB VSUBS sky130_fd_sc_hd__inv_1_88/VPB
+ sky130_fd_sc_hd__fill_2
Xsky130_fd_sc_hd__fill_2_24 VSUBS sky130_fd_sc_hd__inv_1_9/VPB VSUBS sky130_fd_sc_hd__inv_1_9/VPB
+ sky130_fd_sc_hd__fill_2
Xsky130_fd_sc_hd__fill_2_13 VSUBS sky130_fd_sc_hd__inv_1_9/VPB VSUBS sky130_fd_sc_hd__inv_1_9/VPB
+ sky130_fd_sc_hd__fill_2
Xsky130_fd_sc_hd__fill_2_57 VSUBS sky130_fd_sc_hd__inv_1_53/VPB VSUBS sky130_fd_sc_hd__inv_1_53/VPB
+ sky130_fd_sc_hd__fill_2
Xsky130_fd_sc_hd__fill_2_46 VSUBS sky130_fd_sc_hd__inv_1_53/VPB VSUBS sky130_fd_sc_hd__inv_1_53/VPB
+ sky130_fd_sc_hd__fill_2
Xsky130_fd_sc_hd__fill_2_35 VSUBS sky130_fd_sc_hd__inv_1_0/VPB VSUBS sky130_fd_sc_hd__inv_1_0/VPB
+ sky130_fd_sc_hd__fill_2
Xsky130_fd_sc_hd__fill_1_3 sky130_fd_sc_hd__inv_1_53/VPB VSUBS VSUBS sky130_fd_sc_hd__inv_1_53/VPB
+ sky130_fd_sc_hd__fill_1
Xsky130_fd_sc_hd__fill_8_34 VSUBS sky130_fd_sc_hd__inv_1_89/VPB VSUBS sky130_fd_sc_hd__inv_1_89/VPB
+ sky130_fd_sc_hd__fill_8
Xsky130_fd_sc_hd__fill_8_56 VSUBS sky130_fd_sc_hd__inv_1_89/VPB VSUBS sky130_fd_sc_hd__inv_1_89/VPB
+ sky130_fd_sc_hd__fill_8
Xsky130_fd_sc_hd__fill_8_45 VSUBS sky130_fd_sc_hd__inv_1_99/VPB VSUBS sky130_fd_sc_hd__inv_1_99/VPB
+ sky130_fd_sc_hd__fill_8
Xsky130_fd_sc_hd__fill_8_67 VSUBS sky130_fd_sc_hd__inv_1_88/VPB VSUBS sky130_fd_sc_hd__inv_1_88/VPB
+ sky130_fd_sc_hd__fill_8
Xsky130_fd_sc_hd__fill_8_23 VSUBS sky130_fd_sc_hd__inv_1_9/VPB VSUBS sky130_fd_sc_hd__inv_1_9/VPB
+ sky130_fd_sc_hd__fill_8
Xsky130_fd_sc_hd__fill_8_12 VSUBS sky130_fd_sc_hd__inv_1_53/VPB VSUBS sky130_fd_sc_hd__inv_1_53/VPB
+ sky130_fd_sc_hd__fill_8
Xsky130_fd_sc_hd__inv_1_150 sky130_fd_sc_hd__inv_1_93/A sky130_fd_sc_hd__inv_1_150/A
+ VSUBS sky130_fd_sc_hd__inv_1_99/VPB VSUBS sky130_fd_sc_hd__inv_1_99/VPB sky130_fd_sc_hd__inv_1
Xsky130_fd_sc_hd__dfxtp_1_7 sky130_fd_sc_hd__inv_1_114/A sky130_fd_sc_hd__inv_1_131/A
+ sky130_fd_sc_hd__inv_1_114/Y sky130_fd_sc_hd__inv_1_88/VPB VSUBS VSUBS sky130_fd_sc_hd__inv_1_88/VPB
+ sky130_fd_sc_hd__dfxtp_1
Xsky130_fd_sc_hd__fill_1_109 sky130_fd_sc_hd__inv_1_89/VPB VSUBS VSUBS sky130_fd_sc_hd__inv_1_89/VPB
+ sky130_fd_sc_hd__fill_1
Xsky130_fd_sc_hd__inv_1_7 sky130_fd_sc_hd__inv_1_7/Y sky130_fd_sc_hd__inv_1_8/Y VSUBS
+ sky130_fd_sc_hd__inv_1_9/VPB VSUBS sky130_fd_sc_hd__inv_1_9/VPB sky130_fd_sc_hd__inv_1
Xsky130_fd_sc_hd__inv_1_29 sky130_fd_sc_hd__inv_1_29/Y sky130_fd_sc_hd__inv_1_30/Y
+ VSUBS sky130_fd_sc_hd__inv_1_0/VPB VSUBS sky130_fd_sc_hd__inv_1_0/VPB sky130_fd_sc_hd__inv_1
Xsky130_fd_sc_hd__inv_1_18 sky130_fd_sc_hd__inv_1_18/Y sky130_fd_sc_hd__inv_1_19/Y
+ VSUBS sky130_fd_sc_hd__inv_1_9/VPB VSUBS sky130_fd_sc_hd__inv_1_9/VPB sky130_fd_sc_hd__inv_1
Xsky130_fd_sc_hd__fill_2_69 VSUBS sky130_fd_sc_hd__inv_1_88/VPB VSUBS sky130_fd_sc_hd__inv_1_88/VPB
+ sky130_fd_sc_hd__fill_2
Xsky130_fd_sc_hd__fill_2_25 VSUBS sky130_fd_sc_hd__inv_1_9/VPB VSUBS sky130_fd_sc_hd__inv_1_9/VPB
+ sky130_fd_sc_hd__fill_2
Xsky130_fd_sc_hd__fill_2_14 VSUBS sky130_fd_sc_hd__inv_1_9/VPB VSUBS sky130_fd_sc_hd__inv_1_9/VPB
+ sky130_fd_sc_hd__fill_2
Xsky130_fd_sc_hd__fill_2_58 VSUBS sky130_fd_sc_hd__inv_1_53/VPB VSUBS sky130_fd_sc_hd__inv_1_53/VPB
+ sky130_fd_sc_hd__fill_2
Xsky130_fd_sc_hd__fill_2_47 VSUBS sky130_fd_sc_hd__inv_1_53/VPB VSUBS sky130_fd_sc_hd__inv_1_53/VPB
+ sky130_fd_sc_hd__fill_2
Xsky130_fd_sc_hd__fill_2_36 VSUBS sky130_fd_sc_hd__inv_1_0/VPB VSUBS sky130_fd_sc_hd__inv_1_0/VPB
+ sky130_fd_sc_hd__fill_2
Xsky130_fd_sc_hd__fill_1_4 sky130_fd_sc_hd__inv_1_9/VPB VSUBS VSUBS sky130_fd_sc_hd__inv_1_9/VPB
+ sky130_fd_sc_hd__fill_1
Xsky130_fd_sc_hd__fill_8_46 VSUBS sky130_fd_sc_hd__inv_1_89/VPB VSUBS sky130_fd_sc_hd__inv_1_89/VPB
+ sky130_fd_sc_hd__fill_8
Xsky130_fd_sc_hd__fill_8_35 VSUBS sky130_fd_sc_hd__inv_1_99/VPB VSUBS sky130_fd_sc_hd__inv_1_99/VPB
+ sky130_fd_sc_hd__fill_8
Xsky130_fd_sc_hd__fill_8_57 VSUBS sky130_fd_sc_hd__inv_1_99/VPB VSUBS sky130_fd_sc_hd__inv_1_99/VPB
+ sky130_fd_sc_hd__fill_8
Xsky130_fd_sc_hd__fill_8_68 VSUBS sky130_fd_sc_hd__inv_1_88/VPB VSUBS sky130_fd_sc_hd__inv_1_88/VPB
+ sky130_fd_sc_hd__fill_8
Xsky130_fd_sc_hd__fill_8_13 VSUBS sky130_fd_sc_hd__inv_1_9/VPB VSUBS sky130_fd_sc_hd__inv_1_9/VPB
+ sky130_fd_sc_hd__fill_8
Xsky130_fd_sc_hd__fill_8_24 VSUBS sky130_fd_sc_hd__inv_1_9/VPB VSUBS sky130_fd_sc_hd__inv_1_9/VPB
+ sky130_fd_sc_hd__fill_8
Xsky130_fd_sc_hd__inv_1_151 sky130_fd_sc_hd__inv_1_151/Y sky130_fd_sc_hd__inv_1_151/A
+ VSUBS sky130_fd_sc_hd__inv_1_0/VPB VSUBS sky130_fd_sc_hd__inv_1_0/VPB sky130_fd_sc_hd__inv_1
Xsky130_fd_sc_hd__inv_1_140 sky130_fd_sc_hd__inv_1_140/Y sky130_fd_sc_hd__inv_1_149/Y
+ VSUBS sky130_fd_sc_hd__inv_1_0/VPB VSUBS sky130_fd_sc_hd__inv_1_0/VPB sky130_fd_sc_hd__inv_1
Xsky130_fd_sc_hd__dfxtp_1_8 sky130_fd_sc_hd__inv_1_134/A sky130_fd_sc_hd__inv_1_112/A
+ sky130_fd_sc_hd__inv_1_134/Y sky130_fd_sc_hd__inv_1_0/VPB VSUBS VSUBS sky130_fd_sc_hd__inv_1_0/VPB
+ sky130_fd_sc_hd__dfxtp_1
Xsky130_fd_sc_hd__inv_1_8 sky130_fd_sc_hd__inv_1_8/Y sky130_fd_sc_hd__inv_1_9/Y VSUBS
+ sky130_fd_sc_hd__inv_1_9/VPB VSUBS sky130_fd_sc_hd__inv_1_9/VPB sky130_fd_sc_hd__inv_1
Xsky130_fd_sc_hd__inv_1_19 sky130_fd_sc_hd__inv_1_19/Y sky130_fd_sc_hd__inv_1_20/Y
+ VSUBS sky130_fd_sc_hd__inv_1_9/VPB VSUBS sky130_fd_sc_hd__inv_1_9/VPB sky130_fd_sc_hd__inv_1
Xsky130_fd_sc_hd__fill_2_37 VSUBS sky130_fd_sc_hd__inv_1_0/VPB VSUBS sky130_fd_sc_hd__inv_1_0/VPB
+ sky130_fd_sc_hd__fill_2
Xsky130_fd_sc_hd__fill_2_15 VSUBS sky130_fd_sc_hd__inv_1_9/VPB VSUBS sky130_fd_sc_hd__inv_1_9/VPB
+ sky130_fd_sc_hd__fill_2
Xsky130_fd_sc_hd__fill_2_26 VSUBS sky130_fd_sc_hd__inv_1_9/VPB VSUBS sky130_fd_sc_hd__inv_1_9/VPB
+ sky130_fd_sc_hd__fill_2
Xsky130_fd_sc_hd__fill_2_59 VSUBS sky130_fd_sc_hd__inv_1_53/VPB VSUBS sky130_fd_sc_hd__inv_1_53/VPB
+ sky130_fd_sc_hd__fill_2
Xsky130_fd_sc_hd__fill_2_48 VSUBS sky130_fd_sc_hd__inv_1_53/VPB VSUBS sky130_fd_sc_hd__inv_1_53/VPB
+ sky130_fd_sc_hd__fill_2
Xsky130_fd_sc_hd__fill_1_5 sky130_fd_sc_hd__inv_1_53/VPB VSUBS VSUBS sky130_fd_sc_hd__inv_1_53/VPB
+ sky130_fd_sc_hd__fill_1
Xsky130_fd_sc_hd__fill_8_47 VSUBS sky130_fd_sc_hd__inv_1_89/VPB VSUBS sky130_fd_sc_hd__inv_1_89/VPB
+ sky130_fd_sc_hd__fill_8
Xsky130_fd_sc_hd__fill_8_58 VSUBS sky130_fd_sc_hd__inv_1_99/VPB VSUBS sky130_fd_sc_hd__inv_1_99/VPB
+ sky130_fd_sc_hd__fill_8
Xsky130_fd_sc_hd__fill_8_36 VSUBS sky130_fd_sc_hd__inv_1_99/VPB VSUBS sky130_fd_sc_hd__inv_1_99/VPB
+ sky130_fd_sc_hd__fill_8
Xsky130_fd_sc_hd__fill_8_25 VSUBS sky130_fd_sc_hd__inv_1_9/VPB VSUBS sky130_fd_sc_hd__inv_1_9/VPB
+ sky130_fd_sc_hd__fill_8
Xsky130_fd_sc_hd__fill_8_14 VSUBS sky130_fd_sc_hd__inv_1_53/VPB VSUBS sky130_fd_sc_hd__inv_1_53/VPB
+ sky130_fd_sc_hd__fill_8
Xsky130_fd_sc_hd__inv_1_130 sky130_fd_sc_hd__inv_1_130/Y OUT VSUBS sky130_fd_sc_hd__inv_1_88/VPB
+ VSUBS sky130_fd_sc_hd__inv_1_88/VPB sky130_fd_sc_hd__inv_1
Xsky130_fd_sc_hd__inv_1_141 sky130_fd_sc_hd__inv_1_149/A sky130_fd_sc_hd__inv_1_144/Y
+ VSUBS sky130_fd_sc_hd__inv_1_0/VPB VSUBS sky130_fd_sc_hd__inv_1_0/VPB sky130_fd_sc_hd__inv_1
Xsky130_fd_sc_hd__inv_1_152 sky130_fd_sc_hd__inv_1_152/Y sky130_fd_sc_hd__inv_1_3/Y
+ VSUBS sky130_fd_sc_hd__inv_1_9/VPB VSUBS sky130_fd_sc_hd__inv_1_9/VPB sky130_fd_sc_hd__inv_1
Xsky130_fd_sc_hd__dfxtp_1_9 sky130_fd_sc_hd__inv_1_112/A sky130_fd_sc_hd__inv_1_16/Y
+ sky130_fd_sc_hd__inv_1_112/Y sky130_fd_sc_hd__inv_1_88/VPB VSUBS VSUBS sky130_fd_sc_hd__inv_1_88/VPB
+ sky130_fd_sc_hd__dfxtp_1
Xsky130_fd_sc_hd__inv_1_9 sky130_fd_sc_hd__inv_1_9/Y sky130_fd_sc_hd__inv_1_9/A VSUBS
+ sky130_fd_sc_hd__inv_1_9/VPB VSUBS sky130_fd_sc_hd__inv_1_9/VPB sky130_fd_sc_hd__inv_1
Xsky130_fd_sc_hd__fill_2_38 VSUBS sky130_fd_sc_hd__inv_1_0/VPB VSUBS sky130_fd_sc_hd__inv_1_0/VPB
+ sky130_fd_sc_hd__fill_2
Xsky130_fd_sc_hd__fill_2_16 VSUBS sky130_fd_sc_hd__inv_1_9/VPB VSUBS sky130_fd_sc_hd__inv_1_9/VPB
+ sky130_fd_sc_hd__fill_2
Xsky130_fd_sc_hd__fill_2_27 VSUBS sky130_fd_sc_hd__inv_1_9/VPB VSUBS sky130_fd_sc_hd__inv_1_9/VPB
+ sky130_fd_sc_hd__fill_2
Xsky130_fd_sc_hd__fill_2_49 VSUBS sky130_fd_sc_hd__inv_1_53/VPB VSUBS sky130_fd_sc_hd__inv_1_53/VPB
+ sky130_fd_sc_hd__fill_2
Xsky130_fd_sc_hd__fill_1_6 sky130_fd_sc_hd__inv_1_0/VPB VSUBS VSUBS sky130_fd_sc_hd__inv_1_0/VPB
+ sky130_fd_sc_hd__fill_1
Xsky130_fd_sc_hd__fill_8_37 VSUBS sky130_fd_sc_hd__inv_1_89/VPB VSUBS sky130_fd_sc_hd__inv_1_89/VPB
+ sky130_fd_sc_hd__fill_8
Xsky130_fd_sc_hd__fill_8_48 VSUBS sky130_fd_sc_hd__inv_1_89/VPB VSUBS sky130_fd_sc_hd__inv_1_89/VPB
+ sky130_fd_sc_hd__fill_8
Xsky130_fd_sc_hd__fill_8_59 VSUBS sky130_fd_sc_hd__inv_1_88/VPB VSUBS sky130_fd_sc_hd__inv_1_88/VPB
+ sky130_fd_sc_hd__fill_8
Xsky130_fd_sc_hd__fill_8_15 VSUBS sky130_fd_sc_hd__inv_1_0/VPB VSUBS sky130_fd_sc_hd__inv_1_0/VPB
+ sky130_fd_sc_hd__fill_8
Xsky130_fd_sc_hd__fill_8_26 VSUBS sky130_fd_sc_hd__inv_1_9/VPB VSUBS sky130_fd_sc_hd__inv_1_9/VPB
+ sky130_fd_sc_hd__fill_8
Xsky130_fd_sc_hd__inv_1_153 sky130_fd_sc_hd__inv_1_153/Y sky130_fd_sc_hd__inv_1_153/A
+ VSUBS sky130_fd_sc_hd__inv_1_99/VPB VSUBS sky130_fd_sc_hd__inv_1_99/VPB sky130_fd_sc_hd__inv_1
Xsky130_fd_sc_hd__inv_1_131 sky130_fd_sc_hd__inv_1_131/Y sky130_fd_sc_hd__inv_1_131/A
+ VSUBS sky130_fd_sc_hd__inv_1_88/VPB VSUBS sky130_fd_sc_hd__inv_1_88/VPB sky130_fd_sc_hd__inv_1
Xsky130_fd_sc_hd__inv_1_120 sky130_fd_sc_hd__inv_1_121/A sky130_fd_sc_hd__inv_1_123/Y
+ VSUBS sky130_fd_sc_hd__inv_1_88/VPB VSUBS sky130_fd_sc_hd__inv_1_88/VPB sky130_fd_sc_hd__inv_1
Xsky130_fd_sc_hd__inv_1_142 sky130_fd_sc_hd__inv_1_145/A sky130_fd_sc_hd__inv_1_151/Y
+ VSUBS sky130_fd_sc_hd__inv_1_0/VPB VSUBS sky130_fd_sc_hd__inv_1_0/VPB sky130_fd_sc_hd__inv_1
Xsky130_fd_sc_hd__fill_2_17 VSUBS sky130_fd_sc_hd__inv_1_9/VPB VSUBS sky130_fd_sc_hd__inv_1_9/VPB
+ sky130_fd_sc_hd__fill_2
Xsky130_fd_sc_hd__fill_2_28 VSUBS sky130_fd_sc_hd__inv_1_9/VPB VSUBS sky130_fd_sc_hd__inv_1_9/VPB
+ sky130_fd_sc_hd__fill_2
Xsky130_fd_sc_hd__fill_8_0 VSUBS sky130_fd_sc_hd__inv_1_9/VPB VSUBS sky130_fd_sc_hd__inv_1_9/VPB
+ sky130_fd_sc_hd__fill_8
Xsky130_fd_sc_hd__fill_2_39 VSUBS sky130_fd_sc_hd__inv_1_0/VPB VSUBS sky130_fd_sc_hd__inv_1_0/VPB
+ sky130_fd_sc_hd__fill_2
Xsky130_fd_sc_hd__fill_1_7 sky130_fd_sc_hd__inv_1_53/VPB VSUBS VSUBS sky130_fd_sc_hd__inv_1_53/VPB
+ sky130_fd_sc_hd__fill_1
Xsky130_fd_sc_hd__fill_8_38 VSUBS sky130_fd_sc_hd__inv_1_89/VPB VSUBS sky130_fd_sc_hd__inv_1_89/VPB
+ sky130_fd_sc_hd__fill_8
Xsky130_fd_sc_hd__fill_8_49 VSUBS sky130_fd_sc_hd__inv_1_89/VPB VSUBS sky130_fd_sc_hd__inv_1_89/VPB
+ sky130_fd_sc_hd__fill_8
Xsky130_fd_sc_hd__fill_8_16 VSUBS sky130_fd_sc_hd__inv_1_53/VPB VSUBS sky130_fd_sc_hd__inv_1_53/VPB
+ sky130_fd_sc_hd__fill_8
Xsky130_fd_sc_hd__fill_8_27 VSUBS sky130_fd_sc_hd__inv_1_53/VPB VSUBS sky130_fd_sc_hd__inv_1_53/VPB
+ sky130_fd_sc_hd__fill_8
Xsky130_fd_sc_hd__inv_1_132 sky130_fd_sc_hd__inv_1_150/A sky130_fd_sc_hd__inv_1_83/Y
+ VSUBS sky130_fd_sc_hd__inv_1_89/VPB VSUBS sky130_fd_sc_hd__inv_1_89/VPB sky130_fd_sc_hd__inv_1
Xsky130_fd_sc_hd__inv_1_110 sky130_fd_sc_hd__inv_1_111/A sky130_fd_sc_hd__inv_1_110/A
+ VSUBS sky130_fd_sc_hd__inv_1_99/VPB VSUBS sky130_fd_sc_hd__inv_1_99/VPB sky130_fd_sc_hd__inv_1
Xsky130_fd_sc_hd__inv_1_121 sky130_fd_sc_hd__inv_1_122/A sky130_fd_sc_hd__inv_1_121/A
+ VSUBS sky130_fd_sc_hd__inv_1_88/VPB VSUBS sky130_fd_sc_hd__inv_1_88/VPB sky130_fd_sc_hd__inv_1
Xsky130_fd_sc_hd__inv_1_154 sky130_fd_sc_hd__inv_1_154/Y sky130_fd_sc_hd__inv_1_31/Y
+ VSUBS sky130_fd_sc_hd__inv_1_0/VPB VSUBS sky130_fd_sc_hd__inv_1_0/VPB sky130_fd_sc_hd__inv_1
Xsky130_fd_sc_hd__inv_1_143 sky130_fd_sc_hd__inv_1_10/A sky130_fd_sc_hd__inv_1_143/A
+ VSUBS sky130_fd_sc_hd__inv_1_9/VPB VSUBS sky130_fd_sc_hd__inv_1_9/VPB sky130_fd_sc_hd__inv_1
Xsky130_fd_sc_hd__decap_4_20 VSUBS sky130_fd_sc_hd__inv_1_88/VPB VSUBS sky130_fd_sc_hd__inv_1_88/VPB
+ sky130_fd_sc_hd__decap_4
Xsky130_fd_sc_hd__fill_2_18 VSUBS sky130_fd_sc_hd__inv_1_9/VPB VSUBS sky130_fd_sc_hd__inv_1_9/VPB
+ sky130_fd_sc_hd__fill_2
Xsky130_fd_sc_hd__fill_2_29 VSUBS sky130_fd_sc_hd__inv_1_9/VPB VSUBS sky130_fd_sc_hd__inv_1_9/VPB
+ sky130_fd_sc_hd__fill_2
Xsky130_fd_sc_hd__fill_8_1 VSUBS sky130_fd_sc_hd__inv_1_53/VPB VSUBS sky130_fd_sc_hd__inv_1_53/VPB
+ sky130_fd_sc_hd__fill_8
Xsky130_fd_sc_hd__fill_1_8 sky130_fd_sc_hd__inv_1_9/VPB VSUBS VSUBS sky130_fd_sc_hd__inv_1_9/VPB
+ sky130_fd_sc_hd__fill_1
Xsky130_fd_sc_hd__fill_8_39 VSUBS sky130_fd_sc_hd__inv_1_88/VPB VSUBS sky130_fd_sc_hd__inv_1_88/VPB
+ sky130_fd_sc_hd__fill_8
Xsky130_fd_sc_hd__fill_8_17 VSUBS sky130_fd_sc_hd__inv_1_9/VPB VSUBS sky130_fd_sc_hd__inv_1_9/VPB
+ sky130_fd_sc_hd__fill_8
Xsky130_fd_sc_hd__fill_8_28 VSUBS sky130_fd_sc_hd__inv_1_53/VPB VSUBS sky130_fd_sc_hd__inv_1_53/VPB
+ sky130_fd_sc_hd__fill_8
Xsky130_fd_sc_hd__inv_1_100 sky130_fd_sc_hd__inv_1_96/A sky130_fd_sc_hd__inv_1_94/Y
+ VSUBS sky130_fd_sc_hd__inv_1_99/VPB VSUBS sky130_fd_sc_hd__inv_1_99/VPB sky130_fd_sc_hd__inv_1
Xsky130_fd_sc_hd__inv_1_111 sky130_fd_sc_hd__inv_1_111/Y sky130_fd_sc_hd__inv_1_111/A
+ VSUBS sky130_fd_sc_hd__inv_1_99/VPB VSUBS sky130_fd_sc_hd__inv_1_99/VPB sky130_fd_sc_hd__inv_1
Xsky130_fd_sc_hd__inv_1_133 sky130_fd_sc_hd__inv_1_151/A sky130_fd_sc_hd__inv_1_60/Y
+ VSUBS sky130_fd_sc_hd__inv_1_88/VPB VSUBS sky130_fd_sc_hd__inv_1_88/VPB sky130_fd_sc_hd__inv_1
Xsky130_fd_sc_hd__inv_1_122 sky130_fd_sc_hd__inv_1_126/A sky130_fd_sc_hd__inv_1_122/A
+ VSUBS sky130_fd_sc_hd__inv_1_88/VPB VSUBS sky130_fd_sc_hd__inv_1_88/VPB sky130_fd_sc_hd__inv_1
Xsky130_fd_sc_hd__inv_1_144 sky130_fd_sc_hd__inv_1_144/Y sky130_fd_sc_hd__inv_1_146/Y
+ VSUBS sky130_fd_sc_hd__inv_1_0/VPB VSUBS sky130_fd_sc_hd__inv_1_0/VPB sky130_fd_sc_hd__inv_1
Xsky130_fd_sc_hd__decap_4_10 VSUBS sky130_fd_sc_hd__inv_1_88/VPB VSUBS sky130_fd_sc_hd__inv_1_88/VPB
+ sky130_fd_sc_hd__decap_4
Xsky130_fd_sc_hd__decap_4_21 VSUBS sky130_fd_sc_hd__inv_1_0/VPB VSUBS sky130_fd_sc_hd__inv_1_0/VPB
+ sky130_fd_sc_hd__decap_4
Xsky130_fd_sc_hd__tapvpwrvgnd_1_0 sky130_fd_sc_hd__inv_1_53/VPB VSUBS sky130_fd_sc_hd__tapvpwrvgnd_1
Xsky130_fd_sc_hd__fill_8_2 VSUBS sky130_fd_sc_hd__inv_1_53/VPB VSUBS sky130_fd_sc_hd__inv_1_53/VPB
+ sky130_fd_sc_hd__fill_8
Xsky130_fd_sc_hd__fill_2_19 VSUBS sky130_fd_sc_hd__inv_1_9/VPB VSUBS sky130_fd_sc_hd__inv_1_9/VPB
+ sky130_fd_sc_hd__fill_2
Xsky130_fd_sc_hd__fill_1_9 sky130_fd_sc_hd__inv_1_53/VPB VSUBS VSUBS sky130_fd_sc_hd__inv_1_53/VPB
+ sky130_fd_sc_hd__fill_1
Xsky130_fd_sc_hd__fill_8_18 VSUBS sky130_fd_sc_hd__inv_1_9/VPB VSUBS sky130_fd_sc_hd__inv_1_9/VPB
+ sky130_fd_sc_hd__fill_8
Xsky130_fd_sc_hd__fill_8_29 VSUBS sky130_fd_sc_hd__inv_1_0/VPB VSUBS sky130_fd_sc_hd__inv_1_0/VPB
+ sky130_fd_sc_hd__fill_8
Xsky130_fd_sc_hd__inv_1_101 sky130_fd_sc_hd__inv_1_153/A sky130_fd_sc_hd__inv_1_111/Y
+ VSUBS sky130_fd_sc_hd__inv_1_99/VPB VSUBS sky130_fd_sc_hd__inv_1_99/VPB sky130_fd_sc_hd__inv_1
Xsky130_fd_sc_hd__inv_1_112 sky130_fd_sc_hd__inv_1_112/Y sky130_fd_sc_hd__inv_1_112/A
+ VSUBS sky130_fd_sc_hd__inv_1_88/VPB VSUBS sky130_fd_sc_hd__inv_1_88/VPB sky130_fd_sc_hd__inv_1
Xsky130_fd_sc_hd__inv_1_123 sky130_fd_sc_hd__inv_1_123/Y sky130_fd_sc_hd__inv_1_154/Y
+ VSUBS sky130_fd_sc_hd__inv_1_88/VPB VSUBS sky130_fd_sc_hd__inv_1_88/VPB sky130_fd_sc_hd__inv_1
Xsky130_fd_sc_hd__inv_1_134 sky130_fd_sc_hd__inv_1_134/Y sky130_fd_sc_hd__inv_1_134/A
+ VSUBS sky130_fd_sc_hd__inv_1_0/VPB VSUBS sky130_fd_sc_hd__inv_1_0/VPB sky130_fd_sc_hd__inv_1
Xsky130_fd_sc_hd__inv_1_145 sky130_fd_sc_hd__inv_1_148/A sky130_fd_sc_hd__inv_1_145/A
+ VSUBS sky130_fd_sc_hd__inv_1_0/VPB VSUBS sky130_fd_sc_hd__inv_1_0/VPB sky130_fd_sc_hd__inv_1
Xsky130_fd_sc_hd__tapvpwrvgnd_1_30 sky130_fd_sc_hd__inv_1_0/VPB VSUBS sky130_fd_sc_hd__tapvpwrvgnd_1
Xsky130_fd_sc_hd__decap_4_11 VSUBS sky130_fd_sc_hd__inv_1_89/VPB VSUBS sky130_fd_sc_hd__inv_1_89/VPB
+ sky130_fd_sc_hd__decap_4
Xsky130_fd_sc_hd__decap_4_22 VSUBS sky130_fd_sc_hd__inv_1_0/VPB VSUBS sky130_fd_sc_hd__inv_1_0/VPB
+ sky130_fd_sc_hd__decap_4
Xsky130_fd_sc_hd__tapvpwrvgnd_1_1 sky130_fd_sc_hd__inv_1_9/VPB VSUBS sky130_fd_sc_hd__tapvpwrvgnd_1
Xsky130_fd_sc_hd__fill_8_3 VSUBS sky130_fd_sc_hd__inv_1_53/VPB VSUBS sky130_fd_sc_hd__inv_1_53/VPB
+ sky130_fd_sc_hd__fill_8
Xsky130_fd_sc_hd__fill_8_19 VSUBS sky130_fd_sc_hd__inv_1_0/VPB VSUBS sky130_fd_sc_hd__inv_1_0/VPB
+ sky130_fd_sc_hd__fill_8
Xsky130_fd_sc_hd__inv_1_102 sky130_fd_sc_hd__inv_1_107/A sky130_fd_sc_hd__inv_1_103/Y
+ VSUBS sky130_fd_sc_hd__inv_1_99/VPB VSUBS sky130_fd_sc_hd__inv_1_99/VPB sky130_fd_sc_hd__inv_1
Xsky130_fd_sc_hd__inv_1_113 sky130_fd_sc_hd__inv_1_113/Y sky130_fd_sc_hd__inv_1_113/A
+ VSUBS sky130_fd_sc_hd__inv_1_88/VPB VSUBS sky130_fd_sc_hd__inv_1_88/VPB sky130_fd_sc_hd__inv_1
Xsky130_fd_sc_hd__inv_1_124 sky130_fd_sc_hd__inv_1_124/Y sky130_fd_sc_hd__inv_1_129/Y
+ VSUBS sky130_fd_sc_hd__inv_1_88/VPB VSUBS sky130_fd_sc_hd__inv_1_88/VPB sky130_fd_sc_hd__inv_1
Xsky130_fd_sc_hd__inv_1_135 sky130_fd_sc_hd__inv_1_135/Y sky130_fd_sc_hd__inv_1_135/A
+ VSUBS sky130_fd_sc_hd__inv_1_0/VPB VSUBS sky130_fd_sc_hd__inv_1_0/VPB sky130_fd_sc_hd__inv_1
Xsky130_fd_sc_hd__inv_1_146 sky130_fd_sc_hd__inv_1_146/Y sky130_fd_sc_hd__inv_1_147/Y
+ VSUBS sky130_fd_sc_hd__inv_1_0/VPB VSUBS sky130_fd_sc_hd__inv_1_0/VPB sky130_fd_sc_hd__inv_1
Xsky130_fd_sc_hd__tapvpwrvgnd_1_20 sky130_fd_sc_hd__inv_1_99/VPB VSUBS sky130_fd_sc_hd__tapvpwrvgnd_1
Xsky130_fd_sc_hd__tapvpwrvgnd_1_31 sky130_fd_sc_hd__inv_1_0/VPB VSUBS sky130_fd_sc_hd__tapvpwrvgnd_1
Xsky130_fd_sc_hd__decap_4_12 VSUBS sky130_fd_sc_hd__inv_1_89/VPB VSUBS sky130_fd_sc_hd__inv_1_89/VPB
+ sky130_fd_sc_hd__decap_4
Xsky130_fd_sc_hd__decap_4_23 VSUBS sky130_fd_sc_hd__inv_1_88/VPB VSUBS sky130_fd_sc_hd__inv_1_88/VPB
+ sky130_fd_sc_hd__decap_4
Xsky130_fd_sc_hd__tapvpwrvgnd_1_2 sky130_fd_sc_hd__inv_1_9/VPB VSUBS sky130_fd_sc_hd__tapvpwrvgnd_1
Xsky130_fd_sc_hd__fill_8_4 VSUBS sky130_fd_sc_hd__inv_1_9/VPB VSUBS sky130_fd_sc_hd__inv_1_9/VPB
+ sky130_fd_sc_hd__fill_8
Xsky130_fd_sc_hd__inv_1_103 sky130_fd_sc_hd__inv_1_103/Y sky130_fd_sc_hd__inv_1_104/Y
+ VSUBS sky130_fd_sc_hd__inv_1_99/VPB VSUBS sky130_fd_sc_hd__inv_1_99/VPB sky130_fd_sc_hd__inv_1
Xsky130_fd_sc_hd__inv_1_114 sky130_fd_sc_hd__inv_1_114/Y sky130_fd_sc_hd__inv_1_114/A
+ VSUBS sky130_fd_sc_hd__inv_1_88/VPB VSUBS sky130_fd_sc_hd__inv_1_88/VPB sky130_fd_sc_hd__inv_1
Xsky130_fd_sc_hd__inv_1_147 sky130_fd_sc_hd__inv_1_147/Y sky130_fd_sc_hd__inv_1_148/Y
+ VSUBS sky130_fd_sc_hd__inv_1_0/VPB VSUBS sky130_fd_sc_hd__inv_1_0/VPB sky130_fd_sc_hd__inv_1
Xsky130_fd_sc_hd__inv_1_125 sky130_fd_sc_hd__inv_1_33/A sky130_fd_sc_hd__inv_1_152/Y
+ VSUBS sky130_fd_sc_hd__inv_1_53/VPB VSUBS sky130_fd_sc_hd__inv_1_53/VPB sky130_fd_sc_hd__inv_1
Xsky130_fd_sc_hd__inv_1_136 sky130_fd_sc_hd__inv_1_143/A sky130_fd_sc_hd__inv_1_44/Y
+ VSUBS sky130_fd_sc_hd__inv_1_53/VPB VSUBS sky130_fd_sc_hd__inv_1_53/VPB sky130_fd_sc_hd__inv_1
Xsky130_fd_sc_hd__tapvpwrvgnd_1_21 sky130_fd_sc_hd__inv_1_88/VPB VSUBS sky130_fd_sc_hd__tapvpwrvgnd_1
Xsky130_fd_sc_hd__tapvpwrvgnd_1_32 sky130_fd_sc_hd__inv_1_88/VPB VSUBS sky130_fd_sc_hd__tapvpwrvgnd_1
Xsky130_fd_sc_hd__tapvpwrvgnd_1_10 sky130_fd_sc_hd__inv_1_9/VPB VSUBS sky130_fd_sc_hd__tapvpwrvgnd_1
Xsky130_fd_sc_hd__decap_4_13 VSUBS sky130_fd_sc_hd__inv_1_99/VPB VSUBS sky130_fd_sc_hd__inv_1_99/VPB
+ sky130_fd_sc_hd__decap_4
Xsky130_fd_sc_hd__tapvpwrvgnd_1_3 sky130_fd_sc_hd__inv_1_9/VPB VSUBS sky130_fd_sc_hd__tapvpwrvgnd_1
Xsky130_fd_sc_hd__fill_8_5 VSUBS sky130_fd_sc_hd__inv_1_53/VPB VSUBS sky130_fd_sc_hd__inv_1_53/VPB
+ sky130_fd_sc_hd__fill_8
Xsky130_fd_sc_hd__inv_1_115 sky130_fd_sc_hd__inv_1_115/Y sky130_fd_sc_hd__inv_1_115/A
+ VSUBS sky130_fd_sc_hd__inv_1_99/VPB VSUBS sky130_fd_sc_hd__inv_1_99/VPB sky130_fd_sc_hd__inv_1
Xsky130_fd_sc_hd__inv_1_104 sky130_fd_sc_hd__inv_1_104/Y sky130_fd_sc_hd__inv_1_105/Y
+ VSUBS sky130_fd_sc_hd__inv_1_99/VPB VSUBS sky130_fd_sc_hd__inv_1_99/VPB sky130_fd_sc_hd__inv_1
Xsky130_fd_sc_hd__inv_1_126 sky130_fd_sc_hd__inv_1_127/A sky130_fd_sc_hd__inv_1_126/A
+ VSUBS sky130_fd_sc_hd__inv_1_88/VPB VSUBS sky130_fd_sc_hd__inv_1_88/VPB sky130_fd_sc_hd__inv_1