* NGSPICE file created from opamp_sample_0012.ext - technology: sky130A

.subckt opamp_sample_0012 GND VOUT VDD VN VP CS_BIAS DIFFPAIR_BIAS
X0 GND.t87 CS_BIAS.t24 VOUT.t25 GND.t41 sky130_fd_pr__nfet_01v8 ad=1.4898 pd=8.42 as=0.6303 ps=4.15 w=3.82 l=2.21
X1 VOUT.t24 CS_BIAS.t25 GND.t86 GND.t24 sky130_fd_pr__nfet_01v8 ad=0.6303 pd=4.15 as=0.6303 ps=4.15 w=3.82 l=2.21
X2 GND.t233 GND.t231 GND.t232 GND.t145 sky130_fd_pr__nfet_01v8 ad=1.4898 pd=8.42 as=0 ps=0 w=3.82 l=2.21
X3 a_n16148_7944.t5 a_n10279_8682.t10 a_n4238_7449.t0 VDD.t35 sky130_fd_pr__pfet_01v8 ad=0.55275 pd=3.68 as=1.3065 ps=7.48 w=3.35 l=5.36
X4 CS_BIAS.t3 CS_BIAS.t2 GND.t85 GND.t24 sky130_fd_pr__nfet_01v8 ad=0.6303 pd=4.15 as=0.6303 ps=4.15 w=3.82 l=2.21
X5 GND.t230 GND.t228 GND.t229 GND.t89 sky130_fd_pr__nfet_01v8 ad=1.4898 pd=8.42 as=0 ps=0 w=3.82 l=2.21
X6 GND.t227 GND.t225 VP.t7 GND.t226 sky130_fd_pr__nfet_01v8 ad=0.165 pd=1.33 as=0.165 ps=1.33 w=1 l=0.5
X7 GND.t224 GND.t222 VN.t7 GND.t223 sky130_fd_pr__nfet_01v8 ad=0.165 pd=1.33 as=0.165 ps=1.33 w=1 l=0.5
X8 VDD.t105 VDD.t103 VDD.t104 VDD.t94 sky130_fd_pr__pfet_01v8 ad=1.3065 pd=7.48 as=0 ps=0 w=3.35 l=5.36
X9 a_n10279_8682.t0 VP.t8 a_n1140_n227.t2 GND.t0 sky130_fd_pr__nfet_01v8 ad=0.9282 pd=5.54 as=0.9282 ps=5.54 w=2.38 l=4.6
X10 VDD.t137 a_n16148_7944.t6 VOUT.t20 VDD.t108 sky130_fd_pr__pfet_01v8 ad=0.8151 pd=4.96 as=0.34485 ps=2.42 w=2.09 l=2.93
X11 VDD.t136 a_n16148_7944.t7 VOUT.t3 VDD.t106 sky130_fd_pr__pfet_01v8 ad=0.34485 pd=2.42 as=0.34485 ps=2.42 w=2.09 l=2.93
X12 VDD.t102 VDD.t100 VDD.t101 VDD.t90 sky130_fd_pr__pfet_01v8 ad=0.8151 pd=4.96 as=0 ps=0 w=2.09 l=2.93
X13 VOUT.t23 CS_BIAS.t26 GND.t84 GND.t14 sky130_fd_pr__nfet_01v8 ad=0.6303 pd=4.15 as=0.6303 ps=4.15 w=3.82 l=2.21
X14 CS_BIAS.t1 CS_BIAS.t0 GND.t83 GND.t14 sky130_fd_pr__nfet_01v8 ad=0.6303 pd=4.15 as=0.6303 ps=4.15 w=3.82 l=2.21
X15 GND.t82 CS_BIAS.t27 VOUT.t45 GND.t41 sky130_fd_pr__nfet_01v8 ad=1.4898 pd=8.42 as=0.6303 ps=4.15 w=3.82 l=2.21
X16 VOUT.t44 CS_BIAS.t28 GND.t81 GND.t39 sky130_fd_pr__nfet_01v8 ad=0.6303 pd=4.15 as=0.6303 ps=4.15 w=3.82 l=2.21
X17 VOUT.t43 CS_BIAS.t29 GND.t80 GND.t39 sky130_fd_pr__nfet_01v8 ad=0.6303 pd=4.15 as=0.6303 ps=4.15 w=3.82 l=2.21
X18 VOUT.t2 a_n16148_7944.t8 VDD.t135 VDD.t128 sky130_fd_pr__pfet_01v8 ad=0.34485 pd=2.42 as=0.8151 ps=4.96 w=2.09 l=2.93
X19 VDD.t134 a_n16148_7944.t9 VOUT.t10 VDD.t108 sky130_fd_pr__pfet_01v8 ad=0.8151 pd=4.96 as=0.34485 ps=2.42 w=2.09 l=2.93
X20 VOUT.t42 CS_BIAS.t30 GND.t79 GND.t14 sky130_fd_pr__nfet_01v8 ad=0.6303 pd=4.15 as=0.6303 ps=4.15 w=3.82 l=2.21
X21 GND.t78 CS_BIAS.t31 VOUT.t41 GND.t8 sky130_fd_pr__nfet_01v8 ad=0.6303 pd=4.15 as=0.6303 ps=4.15 w=3.82 l=2.21
X22 VDD.t133 a_n16148_7944.t10 VOUT.t18 VDD.t106 sky130_fd_pr__pfet_01v8 ad=0.34485 pd=2.42 as=0.34485 ps=2.42 w=2.09 l=2.93
X23 GND.t221 GND.t219 GND.t220 GND.t89 sky130_fd_pr__nfet_01v8 ad=1.4898 pd=8.42 as=0 ps=0 w=3.82 l=2.21
X24 VDD.t99 VDD.t97 VDD.t98 VDD.t90 sky130_fd_pr__pfet_01v8 ad=0.8151 pd=4.96 as=0 ps=0 w=2.09 l=2.93
X25 a_n16148_7944.t4 a_n10279_8682.t11 a_n4238_7449.t2 VDD.t17 sky130_fd_pr__pfet_01v8 ad=0.55275 pd=3.68 as=1.3065 ps=7.48 w=3.35 l=5.36
X26 VDD.t132 a_n16148_7944.t11 VOUT.t6 VDD.t125 sky130_fd_pr__pfet_01v8 ad=0.34485 pd=2.42 as=0.34485 ps=2.42 w=2.09 l=2.93
X27 a_n4238_7449.t5 a_n10279_8682.t12 VDD.t37 VDD.t36 sky130_fd_pr__pfet_01v8 ad=1.3065 pd=7.48 as=0.55275 ps=3.68 w=3.35 l=5.36
X28 GND.t218 GND.t216 GND.t217 GND.t145 sky130_fd_pr__nfet_01v8 ad=1.4898 pd=8.42 as=0 ps=0 w=3.82 l=2.21
X29 GND.t77 CS_BIAS.t32 VOUT.t40 GND.t11 sky130_fd_pr__nfet_01v8 ad=0.6303 pd=4.15 as=0.6303 ps=4.15 w=3.82 l=2.21
X30 GND.t215 GND.t213 GND.t214 GND.t109 sky130_fd_pr__nfet_01v8 ad=1.4898 pd=8.42 as=0 ps=0 w=3.82 l=2.21
X31 VOUT.t19 a_n16148_7944.t12 VDD.t131 VDD.t128 sky130_fd_pr__pfet_01v8 ad=0.34485 pd=2.42 as=0.8151 ps=4.96 w=2.09 l=2.93
X32 VDD.t96 VDD.t93 VDD.t95 VDD.t94 sky130_fd_pr__pfet_01v8 ad=1.3065 pd=7.48 as=0 ps=0 w=3.35 l=5.36
X33 GND.t212 GND.t210 GND.t211 GND.t122 sky130_fd_pr__nfet_01v8 ad=1.4898 pd=8.42 as=0 ps=0 w=3.82 l=2.21
X34 GND.t76 CS_BIAS.t33 VOUT.t31 GND.t11 sky130_fd_pr__nfet_01v8 ad=0.6303 pd=4.15 as=0.6303 ps=4.15 w=3.82 l=2.21
X35 VDD.t92 VDD.t89 VDD.t91 VDD.t90 sky130_fd_pr__pfet_01v8 ad=0.8151 pd=4.96 as=0 ps=0 w=2.09 l=2.93
X36 VOUT.t30 CS_BIAS.t34 GND.t75 GND.t24 sky130_fd_pr__nfet_01v8 ad=0.6303 pd=4.15 as=0.6303 ps=4.15 w=3.82 l=2.21
X37 VOUT.t29 CS_BIAS.t35 GND.t74 GND.t24 sky130_fd_pr__nfet_01v8 ad=0.6303 pd=4.15 as=0.6303 ps=4.15 w=3.82 l=2.21
X38 VDD.t130 a_n16148_7944.t13 VOUT.t5 VDD.t125 sky130_fd_pr__pfet_01v8 ad=0.34485 pd=2.42 as=0.34485 ps=2.42 w=2.09 l=2.93
X39 GND.t73 CS_BIAS.t36 VOUT.t28 GND.t31 sky130_fd_pr__nfet_01v8 ad=0.6303 pd=4.15 as=0.6303 ps=4.15 w=3.82 l=2.21
X40 GND.t72 CS_BIAS.t37 VOUT.t27 GND.t20 sky130_fd_pr__nfet_01v8 ad=0.6303 pd=4.15 as=0.6303 ps=4.15 w=3.82 l=2.21
X41 VOUT.t26 CS_BIAS.t38 GND.t71 GND.t16 sky130_fd_pr__nfet_01v8 ad=0.6303 pd=4.15 as=1.4898 ps=8.42 w=3.82 l=2.21
X42 a_n1140_n227.t0 DIFFPAIR_BIAS.t2 a_53_n2194# GND.t2 sky130_fd_pr__nfet_01v8 ad=0.8619 pd=5.2 as=0.8619 ps=5.2 w=2.21 l=3.05
X43 GND.t209 GND.t207 GND.t208 GND.t109 sky130_fd_pr__nfet_01v8 ad=1.4898 pd=8.42 as=0 ps=0 w=3.82 l=2.21
X44 VOUT.t4 a_n16148_7944.t14 VDD.t129 VDD.t128 sky130_fd_pr__pfet_01v8 ad=0.34485 pd=2.42 as=0.8151 ps=4.96 w=2.09 l=2.93
X45 VOUT.t67 CS_BIAS.t39 GND.t70 GND.t22 sky130_fd_pr__nfet_01v8 ad=0.6303 pd=4.15 as=0.6303 ps=4.15 w=3.82 l=2.21
X46 GND.t69 CS_BIAS.t40 VOUT.t66 GND.t4 sky130_fd_pr__nfet_01v8 ad=1.4898 pd=8.42 as=0.6303 ps=4.15 w=3.82 l=2.21
X47 a_n10357_8879.t3 a_n10279_8682.t8 a_n10279_8682.t9 VDD.t35 sky130_fd_pr__pfet_01v8 ad=0.55275 pd=3.68 as=1.3065 ps=7.48 w=3.35 l=5.36
X48 VN.t6 GND.t204 GND.t206 GND.t205 sky130_fd_pr__nfet_01v8 ad=0.165 pd=1.33 as=0.165 ps=1.33 w=1 l=0.5
X49 GND.t203 GND.t201 GND.t202 GND.t89 sky130_fd_pr__nfet_01v8 ad=1.4898 pd=8.42 as=0 ps=0 w=3.82 l=2.21
X50 VOUT.t17 a_n16148_7944.t15 VDD.t127 VDD.t122 sky130_fd_pr__pfet_01v8 ad=0.34485 pd=2.42 as=0.34485 ps=2.42 w=2.09 l=2.93
X51 VDD.t126 a_n16148_7944.t16 VOUT.t16 VDD.t125 sky130_fd_pr__pfet_01v8 ad=0.34485 pd=2.42 as=0.34485 ps=2.42 w=2.09 l=2.93
X52 GND.t200 GND.t198 GND.t199 GND.t89 sky130_fd_pr__nfet_01v8 ad=1.4898 pd=8.42 as=0 ps=0 w=3.82 l=2.21
X53 GND.t197 GND.t194 GND.t196 GND.t195 sky130_fd_pr__nfet_01v8 ad=0.8619 pd=5.2 as=0 ps=0 w=2.21 l=3.05
X54 GND.t193 GND.t191 GND.t192 GND.t145 sky130_fd_pr__nfet_01v8 ad=1.4898 pd=8.42 as=0 ps=0 w=3.82 l=2.21
X55 GND.t68 CS_BIAS.t41 VOUT.t65 GND.t20 sky130_fd_pr__nfet_01v8 ad=0.6303 pd=4.15 as=0.6303 ps=4.15 w=3.82 l=2.21
X56 VOUT.t64 CS_BIAS.t42 GND.t67 GND.t22 sky130_fd_pr__nfet_01v8 ad=0.6303 pd=4.15 as=0.6303 ps=4.15 w=3.82 l=2.21
X57 GND.t190 GND.t188 GND.t189 GND.t170 sky130_fd_pr__nfet_01v8 ad=0.9282 pd=5.54 as=0 ps=0 w=2.38 l=4.6
X58 GND.t66 CS_BIAS.t43 VOUT.t63 GND.t4 sky130_fd_pr__nfet_01v8 ad=1.4898 pd=8.42 as=0.6303 ps=4.15 w=3.82 l=2.21
X59 VDD.t34 a_n10279_8682.t13 a_n10357_8879.t11 VDD.t33 sky130_fd_pr__pfet_01v8 ad=0.55275 pd=3.68 as=1.3065 ps=7.48 w=3.35 l=5.36
X60 GND.t65 CS_BIAS.t16 CS_BIAS.t17 GND.t4 sky130_fd_pr__nfet_01v8 ad=1.4898 pd=8.42 as=0.6303 ps=4.15 w=3.82 l=2.21
X61 GND.t64 CS_BIAS.t44 VOUT.t62 GND.t41 sky130_fd_pr__nfet_01v8 ad=1.4898 pd=8.42 as=0.6303 ps=4.15 w=3.82 l=2.21
X62 a_n4238_7449.t9 a_n10279_8682.t14 a_n16148_7944.t3 VDD.t28 sky130_fd_pr__pfet_01v8 ad=1.3065 pd=7.48 as=0.55275 ps=3.68 w=3.35 l=5.36
X63 GND.t53 CS_BIAS.t18 CS_BIAS.t19 GND.t41 sky130_fd_pr__nfet_01v8 ad=1.4898 pd=8.42 as=0.6303 ps=4.15 w=3.82 l=2.21
X64 GND.t63 CS_BIAS.t45 VOUT.t61 GND.t4 sky130_fd_pr__nfet_01v8 ad=1.4898 pd=8.42 as=0.6303 ps=4.15 w=3.82 l=2.21
X65 GND.t62 CS_BIAS.t46 VOUT.t60 GND.t20 sky130_fd_pr__nfet_01v8 ad=0.6303 pd=4.15 as=0.6303 ps=4.15 w=3.82 l=2.21
X66 VN.t5 GND.t185 GND.t187 GND.t186 sky130_fd_pr__nfet_01v8 ad=0.39 pd=2.78 as=0.165 ps=1.33 w=1 l=0.5
X67 VOUT.t11 a_n16148_7944.t17 VDD.t124 VDD.t122 sky130_fd_pr__pfet_01v8 ad=0.34485 pd=2.42 as=0.34485 ps=2.42 w=2.09 l=2.93
X68 VP.t6 GND.t182 GND.t184 GND.t183 sky130_fd_pr__nfet_01v8 ad=0.165 pd=1.33 as=0.165 ps=1.33 w=1 l=0.5
X69 a_n4238_7449.t7 a_n10279_8682.t15 VDD.t32 VDD.t31 sky130_fd_pr__pfet_01v8 ad=0.55275 pd=3.68 as=0.55275 ps=3.68 w=3.35 l=5.36
X70 a_10485_8879# a_10485_8879# a_10485_8879# VDD.t0 sky130_fd_pr__pfet_01v8 ad=1.3065 pd=7.48 as=2.613 ps=14.96 w=3.35 l=5.36
X71 GND.t61 CS_BIAS.t47 VOUT.t59 GND.t31 sky130_fd_pr__nfet_01v8 ad=0.6303 pd=4.15 as=0.6303 ps=4.15 w=3.82 l=2.21
X72 VOUT.t58 CS_BIAS.t48 GND.t60 GND.t39 sky130_fd_pr__nfet_01v8 ad=0.6303 pd=4.15 as=0.6303 ps=4.15 w=3.82 l=2.21
X73 VOUT.t13 a_n16148_7944.t18 VDD.t123 VDD.t122 sky130_fd_pr__pfet_01v8 ad=0.34485 pd=2.42 as=0.34485 ps=2.42 w=2.09 l=2.93
X74 CS_BIAS.t15 CS_BIAS.t14 GND.t59 GND.t39 sky130_fd_pr__nfet_01v8 ad=0.6303 pd=4.15 as=0.6303 ps=4.15 w=3.82 l=2.21
X75 VOUT.t73 CS_BIAS.t49 GND.t58 GND.t6 sky130_fd_pr__nfet_01v8 ad=0.6303 pd=4.15 as=1.4898 ps=8.42 w=3.82 l=2.21
X76 VDD.t121 a_n16148_7944.t19 VOUT.t8 VDD.t117 sky130_fd_pr__pfet_01v8 ad=0.8151 pd=4.96 as=0.34485 ps=2.42 w=2.09 l=2.93
X77 VP.t5 GND.t179 GND.t181 GND.t180 sky130_fd_pr__nfet_01v8 ad=0.39 pd=2.78 as=0.165 ps=1.33 w=1 l=0.5
X78 VN.t4 GND.t176 GND.t178 GND.t177 sky130_fd_pr__nfet_01v8 ad=0.165 pd=1.33 as=0.165 ps=1.33 w=1 l=0.5
X79 VDD.t30 a_n10279_8682.t16 a_n4238_7449.t10 VDD.t29 sky130_fd_pr__pfet_01v8 ad=0.55275 pd=3.68 as=0.55275 ps=3.68 w=3.35 l=5.36
X80 VOUT.t72 CS_BIAS.t50 GND.t57 GND.t22 sky130_fd_pr__nfet_01v8 ad=0.6303 pd=4.15 as=0.6303 ps=4.15 w=3.82 l=2.21
X81 GND.t175 GND.t173 GND.t174 GND.t122 sky130_fd_pr__nfet_01v8 ad=1.4898 pd=8.42 as=0 ps=0 w=3.82 l=2.21
X82 VOUT.t71 CS_BIAS.t51 GND.t56 GND.t6 sky130_fd_pr__nfet_01v8 ad=0.6303 pd=4.15 as=1.4898 ps=8.42 w=3.82 l=2.21
X83 GND.t55 CS_BIAS.t52 VOUT.t70 GND.t41 sky130_fd_pr__nfet_01v8 ad=1.4898 pd=8.42 as=0.6303 ps=4.15 w=3.82 l=2.21
X84 VDD.t88 VDD.t86 VDD.t87 VDD.t50 sky130_fd_pr__pfet_01v8 ad=1.3065 pd=7.48 as=0 ps=0 w=3.35 l=5.36
X85 VOUT.t69 CS_BIAS.t53 GND.t54 GND.t39 sky130_fd_pr__nfet_01v8 ad=0.6303 pd=4.15 as=0.6303 ps=4.15 w=3.82 l=2.21
X86 VOUT.t84 a_n4238_7449.t12 sky130_fd_pr__cap_mim_m3_1 l=11.53 w=6.75
X87 GND.t172 GND.t169 GND.t171 GND.t170 sky130_fd_pr__nfet_01v8 ad=0.9282 pd=5.54 as=0 ps=0 w=2.38 l=4.6
X88 VDD.t85 VDD.t83 VDD.t84 VDD.t74 sky130_fd_pr__pfet_01v8 ad=0.8151 pd=4.96 as=0 ps=0 w=2.09 l=2.93
X89 a_n10279_8682.t1 VP.t9 a_n1140_n227.t1 GND.t1 sky130_fd_pr__nfet_01v8 ad=0.9282 pd=5.54 as=0.9282 ps=5.54 w=2.38 l=4.6
X90 VDD.t120 a_n16148_7944.t20 VOUT.t7 VDD.t117 sky130_fd_pr__pfet_01v8 ad=0.8151 pd=4.96 as=0.34485 ps=2.42 w=2.09 l=2.93
X91 VN.t3 GND.t166 GND.t168 GND.t167 sky130_fd_pr__nfet_01v8 ad=0.165 pd=1.33 as=0.165 ps=1.33 w=1 l=0.5
X92 VP.t4 GND.t163 GND.t165 GND.t164 sky130_fd_pr__nfet_01v8 ad=0.165 pd=1.33 as=0.165 ps=1.33 w=1 l=0.5
X93 VOUT.t79 CS_BIAS.t54 GND.t52 GND.t16 sky130_fd_pr__nfet_01v8 ad=0.6303 pd=4.15 as=1.4898 ps=8.42 w=3.82 l=2.21
X94 GND.t162 GND.t160 GND.t161 GND.t122 sky130_fd_pr__nfet_01v8 ad=1.4898 pd=8.42 as=0 ps=0 w=3.82 l=2.21
X95 GND.t159 GND.t157 GND.t158 GND.t145 sky130_fd_pr__nfet_01v8 ad=1.4898 pd=8.42 as=0 ps=0 w=3.82 l=2.21
X96 GND.t156 GND.t154 GND.t155 GND.t135 sky130_fd_pr__nfet_01v8 ad=0.9282 pd=5.54 as=0 ps=0 w=2.38 l=4.6
X97 a_n10279_8682.t7 a_n10279_8682.t6 a_n10357_8879.t2 VDD.t28 sky130_fd_pr__pfet_01v8 ad=1.3065 pd=7.48 as=0.55275 ps=3.68 w=3.35 l=5.36
X98 GND.t51 CS_BIAS.t55 VOUT.t78 GND.t8 sky130_fd_pr__nfet_01v8 ad=0.6303 pd=4.15 as=0.6303 ps=4.15 w=3.82 l=2.21
X99 VDD.t27 a_n10279_8682.t17 a_n10357_8879.t10 VDD.t26 sky130_fd_pr__pfet_01v8 ad=0.55275 pd=3.68 as=0.55275 ps=3.68 w=3.35 l=5.36
X100 VDD.t82 VDD.t80 VDD.t81 VDD.t74 sky130_fd_pr__pfet_01v8 ad=0.8151 pd=4.96 as=0 ps=0 w=2.09 l=2.93
X101 a_n10357_8879.t9 a_n10279_8682.t18 VDD.t25 VDD.t24 sky130_fd_pr__pfet_01v8 ad=1.3065 pd=7.48 as=0.55275 ps=3.68 w=3.35 l=5.36
X102 VOUT.t77 CS_BIAS.t56 GND.t50 GND.t6 sky130_fd_pr__nfet_01v8 ad=0.6303 pd=4.15 as=1.4898 ps=8.42 w=3.82 l=2.21
X103 VP.t3 GND.t151 GND.t153 GND.t152 sky130_fd_pr__nfet_01v8 ad=0.165 pd=1.33 as=0.165 ps=1.33 w=1 l=0.5
X104 VOUT.t76 CS_BIAS.t57 GND.t49 GND.t14 sky130_fd_pr__nfet_01v8 ad=0.6303 pd=4.15 as=0.6303 ps=4.15 w=3.82 l=2.21
X105 VOUT.t12 a_n16148_7944.t21 VDD.t119 VDD.t114 sky130_fd_pr__pfet_01v8 ad=0.34485 pd=2.42 as=0.34485 ps=2.42 w=2.09 l=2.93
X106 VDD.t118 a_n16148_7944.t22 VOUT.t0 VDD.t117 sky130_fd_pr__pfet_01v8 ad=0.8151 pd=4.96 as=0.34485 ps=2.42 w=2.09 l=2.93
X107 GND.t48 CS_BIAS.t58 VOUT.t75 GND.t31 sky130_fd_pr__nfet_01v8 ad=0.6303 pd=4.15 as=0.6303 ps=4.15 w=3.82 l=2.21
X108 VOUT.t85 a_n4238_7449.t12 sky130_fd_pr__cap_mim_m3_1 l=11.53 w=6.75
X109 GND.t150 GND.t148 GND.t149 GND.t145 sky130_fd_pr__nfet_01v8 ad=1.4898 pd=8.42 as=0 ps=0 w=3.82 l=2.21
X110 VDD.t79 VDD.t77 VDD.t78 VDD.t43 sky130_fd_pr__pfet_01v8 ad=1.3065 pd=7.48 as=0 ps=0 w=3.35 l=5.36
X111 a_n10357_8879.t8 a_n10279_8682.t19 VDD.t23 VDD.t22 sky130_fd_pr__pfet_01v8 ad=0.55275 pd=3.68 as=0.55275 ps=3.68 w=3.35 l=5.36
X112 GND.t147 GND.t144 GND.t146 GND.t145 sky130_fd_pr__nfet_01v8 ad=1.4898 pd=8.42 as=0 ps=0 w=3.82 l=2.21
X113 VDD.t76 VDD.t73 VDD.t75 VDD.t74 sky130_fd_pr__pfet_01v8 ad=0.8151 pd=4.96 as=0 ps=0 w=2.09 l=2.93
X114 GND.t143 GND.t141 GND.t142 GND.t109 sky130_fd_pr__nfet_01v8 ad=1.4898 pd=8.42 as=0 ps=0 w=3.82 l=2.21
X115 VOUT.t74 CS_BIAS.t59 GND.t47 GND.t16 sky130_fd_pr__nfet_01v8 ad=0.6303 pd=4.15 as=1.4898 ps=8.42 w=3.82 l=2.21
X116 VDD.t21 a_n10279_8682.t20 a_n4238_7449.t3 VDD.t20 sky130_fd_pr__pfet_01v8 ad=0.55275 pd=3.68 as=1.3065 ps=7.48 w=3.35 l=5.36
X117 GND.t46 CS_BIAS.t60 VOUT.t49 GND.t8 sky130_fd_pr__nfet_01v8 ad=0.6303 pd=4.15 as=0.6303 ps=4.15 w=3.82 l=2.21
X118 VOUT.t48 CS_BIAS.t61 GND.t45 GND.t14 sky130_fd_pr__nfet_01v8 ad=0.6303 pd=4.15 as=0.6303 ps=4.15 w=3.82 l=2.21
X119 VOUT.t14 a_n16148_7944.t23 VDD.t116 VDD.t114 sky130_fd_pr__pfet_01v8 ad=0.34485 pd=2.42 as=0.34485 ps=2.42 w=2.09 l=2.93
X120 GND.t44 CS_BIAS.t62 VOUT.t47 GND.t20 sky130_fd_pr__nfet_01v8 ad=0.6303 pd=4.15 as=0.6303 ps=4.15 w=3.82 l=2.21
X121 GND.t140 GND.t138 GND.t139 GND.t89 sky130_fd_pr__nfet_01v8 ad=1.4898 pd=8.42 as=0 ps=0 w=3.82 l=2.21
X122 GND.t43 CS_BIAS.t10 CS_BIAS.t11 GND.t20 sky130_fd_pr__nfet_01v8 ad=0.6303 pd=4.15 as=0.6303 ps=4.15 w=3.82 l=2.21
X123 a_n16148_7944.t1 VN.t8 a_n1140_n227.t4 GND.t1 sky130_fd_pr__nfet_01v8 ad=0.9282 pd=5.54 as=0.9282 ps=5.54 w=2.38 l=4.6
X124 GND.t42 CS_BIAS.t63 VOUT.t46 GND.t41 sky130_fd_pr__nfet_01v8 ad=1.4898 pd=8.42 as=0.6303 ps=4.15 w=3.82 l=2.21
X125 VOUT.t36 CS_BIAS.t64 GND.t40 GND.t39 sky130_fd_pr__nfet_01v8 ad=0.6303 pd=4.15 as=0.6303 ps=4.15 w=3.82 l=2.21
X126 VDD.t19 a_n10279_8682.t21 a_n4238_7449.t8 VDD.t18 sky130_fd_pr__pfet_01v8 ad=0.55275 pd=3.68 as=1.3065 ps=7.48 w=3.35 l=5.36
X127 GND.t38 CS_BIAS.t65 VOUT.t35 GND.t11 sky130_fd_pr__nfet_01v8 ad=0.6303 pd=4.15 as=0.6303 ps=4.15 w=3.82 l=2.21
X128 GND.t137 GND.t134 GND.t136 GND.t135 sky130_fd_pr__nfet_01v8 ad=0.9282 pd=5.54 as=0 ps=0 w=2.38 l=4.6
X129 a_n10357_8879.t1 a_n10279_8682.t4 a_n10279_8682.t5 VDD.t17 sky130_fd_pr__pfet_01v8 ad=0.55275 pd=3.68 as=1.3065 ps=7.48 w=3.35 l=5.36
X130 VOUT.t81 a_n16148_7944.t24 VDD.t115 VDD.t114 sky130_fd_pr__pfet_01v8 ad=0.34485 pd=2.42 as=0.34485 ps=2.42 w=2.09 l=2.93
X131 GND.t37 CS_BIAS.t66 VOUT.t34 GND.t11 sky130_fd_pr__nfet_01v8 ad=0.6303 pd=4.15 as=0.6303 ps=4.15 w=3.82 l=2.21
X132 VOUT.t33 CS_BIAS.t67 GND.t36 GND.t24 sky130_fd_pr__nfet_01v8 ad=0.6303 pd=4.15 as=0.6303 ps=4.15 w=3.82 l=2.21
X133 GND.t35 CS_BIAS.t68 VOUT.t32 GND.t31 sky130_fd_pr__nfet_01v8 ad=0.6303 pd=4.15 as=0.6303 ps=4.15 w=3.82 l=2.21
X134 GND.t34 CS_BIAS.t12 CS_BIAS.t13 GND.t31 sky130_fd_pr__nfet_01v8 ad=0.6303 pd=4.15 as=0.6303 ps=4.15 w=3.82 l=2.21
X135 VDD.t16 a_n10279_8682.t22 a_n10357_8879.t7 VDD.t15 sky130_fd_pr__pfet_01v8 ad=0.55275 pd=3.68 as=1.3065 ps=7.48 w=3.35 l=5.36
X136 VDD.t14 a_n10279_8682.t23 a_n4238_7449.t11 VDD.t13 sky130_fd_pr__pfet_01v8 ad=0.55275 pd=3.68 as=0.55275 ps=3.68 w=3.35 l=5.36
X137 VDD.t72 VDD.t70 VDD.t71 VDD.t61 sky130_fd_pr__pfet_01v8 ad=0.8151 pd=4.96 as=0 ps=0 w=2.09 l=2.93
X138 VOUT.t55 CS_BIAS.t69 GND.t33 GND.t16 sky130_fd_pr__nfet_01v8 ad=0.6303 pd=4.15 as=1.4898 ps=8.42 w=3.82 l=2.21
X139 GND.t32 CS_BIAS.t70 VOUT.t54 GND.t31 sky130_fd_pr__nfet_01v8 ad=0.6303 pd=4.15 as=0.6303 ps=4.15 w=3.82 l=2.21
X140 GND.t30 CS_BIAS.t71 VOUT.t53 GND.t8 sky130_fd_pr__nfet_01v8 ad=0.6303 pd=4.15 as=0.6303 ps=4.15 w=3.82 l=2.21
X141 VOUT.t52 CS_BIAS.t72 GND.t29 GND.t22 sky130_fd_pr__nfet_01v8 ad=0.6303 pd=4.15 as=0.6303 ps=4.15 w=3.82 l=2.21
X142 GND.t133 GND.t131 GND.t132 GND.t122 sky130_fd_pr__nfet_01v8 ad=1.4898 pd=8.42 as=0 ps=0 w=3.82 l=2.21
X143 VOUT.t39 CS_BIAS.t73 GND.t28 GND.t6 sky130_fd_pr__nfet_01v8 ad=0.6303 pd=4.15 as=1.4898 ps=8.42 w=3.82 l=2.21
X144 GND.t130 GND.t128 GND.t129 GND.t109 sky130_fd_pr__nfet_01v8 ad=1.4898 pd=8.42 as=0 ps=0 w=3.82 l=2.21
X145 CS_BIAS.t7 CS_BIAS.t6 GND.t27 GND.t22 sky130_fd_pr__nfet_01v8 ad=0.6303 pd=4.15 as=0.6303 ps=4.15 w=3.82 l=2.21
X146 CS_BIAS.t5 CS_BIAS.t4 GND.t26 GND.t6 sky130_fd_pr__nfet_01v8 ad=0.6303 pd=4.15 as=1.4898 ps=8.42 w=3.82 l=2.21
X147 GND.t127 GND.t125 GND.t126 GND.t122 sky130_fd_pr__nfet_01v8 ad=1.4898 pd=8.42 as=0 ps=0 w=3.82 l=2.21
X148 GND.t124 GND.t121 GND.t123 GND.t122 sky130_fd_pr__nfet_01v8 ad=1.4898 pd=8.42 as=0 ps=0 w=3.82 l=2.21
X149 a_n10279_8682.t3 a_n10279_8682.t2 a_n10357_8879.t0 VDD.t12 sky130_fd_pr__pfet_01v8 ad=1.3065 pd=7.48 as=0.55275 ps=3.68 w=3.35 l=5.36
X150 VOUT.t38 CS_BIAS.t74 GND.t25 GND.t24 sky130_fd_pr__nfet_01v8 ad=0.6303 pd=4.15 as=0.6303 ps=4.15 w=3.82 l=2.21
X151 VDD.t69 VDD.t67 VDD.t68 VDD.t61 sky130_fd_pr__pfet_01v8 ad=0.8151 pd=4.96 as=0 ps=0 w=2.09 l=2.93
X152 DIFFPAIR_BIAS.t1 DIFFPAIR_BIAS.t0 a_n819_n2194# GND.t3 sky130_fd_pr__nfet_01v8 ad=0.8619 pd=5.2 as=0.8619 ps=5.2 w=2.21 l=3.05
X153 VOUT.t82 a_n16148_7944.t25 VDD.t113 VDD.t110 sky130_fd_pr__pfet_01v8 ad=0.34485 pd=2.42 as=0.8151 ps=4.96 w=2.09 l=2.93
X154 VOUT.t37 CS_BIAS.t75 GND.t23 GND.t22 sky130_fd_pr__nfet_01v8 ad=0.6303 pd=4.15 as=0.6303 ps=4.15 w=3.82 l=2.21
X155 GND.t21 CS_BIAS.t76 VOUT.t50 GND.t20 sky130_fd_pr__nfet_01v8 ad=0.6303 pd=4.15 as=0.6303 ps=4.15 w=3.82 l=2.21
X156 VOUT.t56 CS_BIAS.t77 GND.t19 GND.t16 sky130_fd_pr__nfet_01v8 ad=0.6303 pd=4.15 as=1.4898 ps=8.42 w=3.82 l=2.21
X157 GND.t120 GND.t118 VP.t2 GND.t119 sky130_fd_pr__nfet_01v8 ad=0.165 pd=1.33 as=0.39 ps=2.78 w=1 l=0.5
X158 CS_BIAS.t9 CS_BIAS.t8 GND.t17 GND.t16 sky130_fd_pr__nfet_01v8 ad=0.6303 pd=4.15 as=1.4898 ps=8.42 w=3.82 l=2.21
X159 GND.t18 CS_BIAS.t78 VOUT.t57 GND.t4 sky130_fd_pr__nfet_01v8 ad=1.4898 pd=8.42 as=0.6303 ps=4.15 w=3.82 l=2.21
X160 VOUT.t51 CS_BIAS.t79 GND.t15 GND.t14 sky130_fd_pr__nfet_01v8 ad=0.6303 pd=4.15 as=0.6303 ps=4.15 w=3.82 l=2.21
X161 a_n4238_7449.t4 a_n10279_8682.t24 a_n16148_7944.t2 VDD.t12 sky130_fd_pr__pfet_01v8 ad=1.3065 pd=7.48 as=0.55275 ps=3.68 w=3.35 l=5.36
X162 VDD.t66 VDD.t64 VDD.t65 VDD.t54 sky130_fd_pr__pfet_01v8 ad=1.3065 pd=7.48 as=0 ps=0 w=3.35 l=5.36
X163 VDD.t63 VDD.t60 VDD.t62 VDD.t61 sky130_fd_pr__pfet_01v8 ad=0.8151 pd=4.96 as=0 ps=0 w=2.09 l=2.93
X164 VDD.t59 VDD.t57 VDD.t58 VDD.t39 sky130_fd_pr__pfet_01v8 ad=0.8151 pd=4.96 as=0 ps=0 w=2.09 l=2.93
X165 VOUT.t9 a_n16148_7944.t26 VDD.t112 VDD.t110 sky130_fd_pr__pfet_01v8 ad=0.34485 pd=2.42 as=0.8151 ps=4.96 w=2.09 l=2.93
X166 GND.t117 GND.t115 VN.t2 GND.t116 sky130_fd_pr__nfet_01v8 ad=0.165 pd=1.33 as=0.165 ps=1.33 w=1 l=0.5
X167 VDD.t56 VDD.t53 VDD.t55 VDD.t54 sky130_fd_pr__pfet_01v8 ad=1.3065 pd=7.48 as=0 ps=0 w=3.35 l=5.36
X168 a_n11713_8879# a_n11713_8879# a_n11713_8879# VDD.t1 sky130_fd_pr__pfet_01v8 ad=1.3065 pd=7.48 as=2.613 ps=14.96 w=3.35 l=5.36
X169 GND.t94 GND.t92 VP.t1 GND.t93 sky130_fd_pr__nfet_01v8 ad=0.165 pd=1.33 as=0.165 ps=1.33 w=1 l=0.5
X170 VDD.t52 VDD.t49 VDD.t51 VDD.t50 sky130_fd_pr__pfet_01v8 ad=1.3065 pd=7.48 as=0 ps=0 w=3.35 l=5.36
X171 GND.t114 GND.t112 GND.t113 GND.t109 sky130_fd_pr__nfet_01v8 ad=1.4898 pd=8.42 as=0 ps=0 w=3.82 l=2.21
X172 VDD.t48 VDD.t46 VDD.t47 VDD.t39 sky130_fd_pr__pfet_01v8 ad=0.8151 pd=4.96 as=0 ps=0 w=2.09 l=2.93
X173 VDD.t45 VDD.t42 VDD.t44 VDD.t43 sky130_fd_pr__pfet_01v8 ad=1.3065 pd=7.48 as=0 ps=0 w=3.35 l=5.36
X174 GND.t111 GND.t108 GND.t110 GND.t109 sky130_fd_pr__nfet_01v8 ad=1.4898 pd=8.42 as=0 ps=0 w=3.82 l=2.21
X175 a_n16148_7944.t0 VN.t9 a_n1140_n227.t3 GND.t0 sky130_fd_pr__nfet_01v8 ad=0.9282 pd=5.54 as=0.9282 ps=5.54 w=2.38 l=4.6
X176 VOUT.t1 a_n16148_7944.t27 VDD.t111 VDD.t110 sky130_fd_pr__pfet_01v8 ad=0.34485 pd=2.42 as=0.8151 ps=4.96 w=2.09 l=2.93
X177 GND.t107 GND.t105 VN.t1 GND.t106 sky130_fd_pr__nfet_01v8 ad=0.165 pd=1.33 as=0.165 ps=1.33 w=1 l=0.5
X178 GND.t104 GND.t102 VP.t0 GND.t103 sky130_fd_pr__nfet_01v8 ad=0.165 pd=1.33 as=0.165 ps=1.33 w=1 l=0.5
X179 GND.t13 CS_BIAS.t80 VOUT.t22 GND.t11 sky130_fd_pr__nfet_01v8 ad=0.6303 pd=4.15 as=0.6303 ps=4.15 w=3.82 l=2.21
X180 GND.t12 CS_BIAS.t22 CS_BIAS.t23 GND.t11 sky130_fd_pr__nfet_01v8 ad=0.6303 pd=4.15 as=0.6303 ps=4.15 w=3.82 l=2.21
X181 a_n10357_8879.t6 a_n10279_8682.t25 VDD.t11 VDD.t10 sky130_fd_pr__pfet_01v8 ad=1.3065 pd=7.48 as=0.55275 ps=3.68 w=3.35 l=5.36
X182 VDD.t41 VDD.t38 VDD.t40 VDD.t39 sky130_fd_pr__pfet_01v8 ad=0.8151 pd=4.96 as=0 ps=0 w=2.09 l=2.93
X183 GND.t101 GND.t98 GND.t100 GND.t99 sky130_fd_pr__nfet_01v8 ad=0.8619 pd=5.2 as=0 ps=0 w=2.21 l=3.05
X184 a_n4238_7449.t6 a_n10279_8682.t26 VDD.t9 VDD.t8 sky130_fd_pr__pfet_01v8 ad=0.55275 pd=3.68 as=0.55275 ps=3.68 w=3.35 l=5.36
X185 GND.t97 GND.t95 VN.t0 GND.t96 sky130_fd_pr__nfet_01v8 ad=0.165 pd=1.33 as=0.39 ps=2.78 w=1 l=0.5
X186 GND.t91 GND.t88 GND.t90 GND.t89 sky130_fd_pr__nfet_01v8 ad=1.4898 pd=8.42 as=0 ps=0 w=3.82 l=2.21
X187 GND.t10 CS_BIAS.t81 VOUT.t80 GND.t8 sky130_fd_pr__nfet_01v8 ad=0.6303 pd=4.15 as=0.6303 ps=4.15 w=3.82 l=2.21
X188 a_n10357_8879.t5 a_n10279_8682.t27 VDD.t7 VDD.t6 sky130_fd_pr__pfet_01v8 ad=0.55275 pd=3.68 as=0.55275 ps=3.68 w=3.35 l=5.36
X189 GND.t9 CS_BIAS.t20 CS_BIAS.t21 GND.t8 sky130_fd_pr__nfet_01v8 ad=0.6303 pd=4.15 as=0.6303 ps=4.15 w=3.82 l=2.21
X190 VDD.t109 a_n16148_7944.t28 VOUT.t15 VDD.t108 sky130_fd_pr__pfet_01v8 ad=0.8151 pd=4.96 as=0.34485 ps=2.42 w=2.09 l=2.93
X191 VDD.t107 a_n16148_7944.t29 VOUT.t83 VDD.t106 sky130_fd_pr__pfet_01v8 ad=0.34485 pd=2.42 as=0.34485 ps=2.42 w=2.09 l=2.93
X192 VDD.t5 a_n10279_8682.t28 a_n10357_8879.t4 VDD.t4 sky130_fd_pr__pfet_01v8 ad=0.55275 pd=3.68 as=0.55275 ps=3.68 w=3.35 l=5.36
X193 a_n4238_7449.t1 a_n10279_8682.t29 VDD.t3 VDD.t2 sky130_fd_pr__pfet_01v8 ad=1.3065 pd=7.48 as=0.55275 ps=3.68 w=3.35 l=5.36
X194 VOUT.t21 CS_BIAS.t82 GND.t7 GND.t6 sky130_fd_pr__nfet_01v8 ad=0.6303 pd=4.15 as=1.4898 ps=8.42 w=3.82 l=2.21
X195 GND.t5 CS_BIAS.t83 VOUT.t68 GND.t4 sky130_fd_pr__nfet_01v8 ad=1.4898 pd=8.42 as=0.6303 ps=4.15 w=3.82 l=2.21
R0 CS_BIAS.n287 CS_BIAS.n243 161.3
R1 CS_BIAS.n286 CS_BIAS.n285 161.3
R2 CS_BIAS.n284 CS_BIAS.n244 161.3
R3 CS_BIAS.n283 CS_BIAS.n282 161.3
R4 CS_BIAS.n281 CS_BIAS.n245 161.3
R5 CS_BIAS.n279 CS_BIAS.n278 161.3
R6 CS_BIAS.n277 CS_BIAS.n246 161.3
R7 CS_BIAS.n276 CS_BIAS.n275 161.3
R8 CS_BIAS.n274 CS_BIAS.n247 161.3
R9 CS_BIAS.n273 CS_BIAS.n272 161.3
R10 CS_BIAS.n271 CS_BIAS.n270 161.3
R11 CS_BIAS.n269 CS_BIAS.n249 161.3
R12 CS_BIAS.n268 CS_BIAS.n267 161.3
R13 CS_BIAS.n266 CS_BIAS.n250 161.3
R14 CS_BIAS.n265 CS_BIAS.n264 161.3
R15 CS_BIAS.n262 CS_BIAS.n251 161.3
R16 CS_BIAS.n261 CS_BIAS.n260 161.3
R17 CS_BIAS.n259 CS_BIAS.n252 161.3
R18 CS_BIAS.n258 CS_BIAS.n257 161.3
R19 CS_BIAS.n256 CS_BIAS.n253 161.3
R20 CS_BIAS.n208 CS_BIAS.n205 161.3
R21 CS_BIAS.n210 CS_BIAS.n209 161.3
R22 CS_BIAS.n211 CS_BIAS.n204 161.3
R23 CS_BIAS.n213 CS_BIAS.n212 161.3
R24 CS_BIAS.n214 CS_BIAS.n203 161.3
R25 CS_BIAS.n217 CS_BIAS.n216 161.3
R26 CS_BIAS.n218 CS_BIAS.n202 161.3
R27 CS_BIAS.n220 CS_BIAS.n219 161.3
R28 CS_BIAS.n221 CS_BIAS.n201 161.3
R29 CS_BIAS.n223 CS_BIAS.n222 161.3
R30 CS_BIAS.n225 CS_BIAS.n224 161.3
R31 CS_BIAS.n226 CS_BIAS.n199 161.3
R32 CS_BIAS.n228 CS_BIAS.n227 161.3
R33 CS_BIAS.n229 CS_BIAS.n198 161.3
R34 CS_BIAS.n231 CS_BIAS.n230 161.3
R35 CS_BIAS.n233 CS_BIAS.n197 161.3
R36 CS_BIAS.n235 CS_BIAS.n234 161.3
R37 CS_BIAS.n236 CS_BIAS.n196 161.3
R38 CS_BIAS.n238 CS_BIAS.n237 161.3
R39 CS_BIAS.n239 CS_BIAS.n195 161.3
R40 CS_BIAS.n160 CS_BIAS.n157 161.3
R41 CS_BIAS.n162 CS_BIAS.n161 161.3
R42 CS_BIAS.n163 CS_BIAS.n156 161.3
R43 CS_BIAS.n165 CS_BIAS.n164 161.3
R44 CS_BIAS.n166 CS_BIAS.n155 161.3
R45 CS_BIAS.n169 CS_BIAS.n168 161.3
R46 CS_BIAS.n170 CS_BIAS.n154 161.3
R47 CS_BIAS.n172 CS_BIAS.n171 161.3
R48 CS_BIAS.n173 CS_BIAS.n153 161.3
R49 CS_BIAS.n175 CS_BIAS.n174 161.3
R50 CS_BIAS.n177 CS_BIAS.n176 161.3
R51 CS_BIAS.n178 CS_BIAS.n151 161.3
R52 CS_BIAS.n180 CS_BIAS.n179 161.3
R53 CS_BIAS.n181 CS_BIAS.n150 161.3
R54 CS_BIAS.n183 CS_BIAS.n182 161.3
R55 CS_BIAS.n185 CS_BIAS.n149 161.3
R56 CS_BIAS.n187 CS_BIAS.n186 161.3
R57 CS_BIAS.n188 CS_BIAS.n148 161.3
R58 CS_BIAS.n190 CS_BIAS.n189 161.3
R59 CS_BIAS.n191 CS_BIAS.n147 161.3
R60 CS_BIAS.n112 CS_BIAS.n109 161.3
R61 CS_BIAS.n114 CS_BIAS.n113 161.3
R62 CS_BIAS.n115 CS_BIAS.n108 161.3
R63 CS_BIAS.n117 CS_BIAS.n116 161.3
R64 CS_BIAS.n118 CS_BIAS.n107 161.3
R65 CS_BIAS.n121 CS_BIAS.n120 161.3
R66 CS_BIAS.n122 CS_BIAS.n106 161.3
R67 CS_BIAS.n124 CS_BIAS.n123 161.3
R68 CS_BIAS.n125 CS_BIAS.n105 161.3
R69 CS_BIAS.n127 CS_BIAS.n126 161.3
R70 CS_BIAS.n129 CS_BIAS.n128 161.3
R71 CS_BIAS.n130 CS_BIAS.n103 161.3
R72 CS_BIAS.n132 CS_BIAS.n131 161.3
R73 CS_BIAS.n133 CS_BIAS.n102 161.3
R74 CS_BIAS.n135 CS_BIAS.n134 161.3
R75 CS_BIAS.n137 CS_BIAS.n101 161.3
R76 CS_BIAS.n139 CS_BIAS.n138 161.3
R77 CS_BIAS.n140 CS_BIAS.n100 161.3
R78 CS_BIAS.n142 CS_BIAS.n141 161.3
R79 CS_BIAS.n143 CS_BIAS.n99 161.3
R80 CS_BIAS.n21 CS_BIAS.n18 161.3
R81 CS_BIAS.n23 CS_BIAS.n22 161.3
R82 CS_BIAS.n24 CS_BIAS.n17 161.3
R83 CS_BIAS.n26 CS_BIAS.n25 161.3
R84 CS_BIAS.n27 CS_BIAS.n16 161.3
R85 CS_BIAS.n30 CS_BIAS.n29 161.3
R86 CS_BIAS.n31 CS_BIAS.n15 161.3
R87 CS_BIAS.n33 CS_BIAS.n32 161.3
R88 CS_BIAS.n34 CS_BIAS.n14 161.3
R89 CS_BIAS.n36 CS_BIAS.n35 161.3
R90 CS_BIAS.n38 CS_BIAS.n37 161.3
R91 CS_BIAS.n39 CS_BIAS.n12 161.3
R92 CS_BIAS.n41 CS_BIAS.n40 161.3
R93 CS_BIAS.n42 CS_BIAS.n11 161.3
R94 CS_BIAS.n44 CS_BIAS.n43 161.3
R95 CS_BIAS.n46 CS_BIAS.n10 161.3
R96 CS_BIAS.n48 CS_BIAS.n47 161.3
R97 CS_BIAS.n49 CS_BIAS.n9 161.3
R98 CS_BIAS.n51 CS_BIAS.n50 161.3
R99 CS_BIAS.n52 CS_BIAS.n8 161.3
R100 CS_BIAS.n65 CS_BIAS.n62 161.3
R101 CS_BIAS.n67 CS_BIAS.n66 161.3
R102 CS_BIAS.n68 CS_BIAS.n61 161.3
R103 CS_BIAS.n70 CS_BIAS.n69 161.3
R104 CS_BIAS.n71 CS_BIAS.n60 161.3
R105 CS_BIAS.n74 CS_BIAS.n73 161.3
R106 CS_BIAS.n75 CS_BIAS.n7 161.3
R107 CS_BIAS.n77 CS_BIAS.n76 161.3
R108 CS_BIAS.n78 CS_BIAS.n6 161.3
R109 CS_BIAS.n80 CS_BIAS.n79 161.3
R110 CS_BIAS.n82 CS_BIAS.n81 161.3
R111 CS_BIAS.n83 CS_BIAS.n4 161.3
R112 CS_BIAS.n85 CS_BIAS.n84 161.3
R113 CS_BIAS.n86 CS_BIAS.n3 161.3
R114 CS_BIAS.n88 CS_BIAS.n87 161.3
R115 CS_BIAS.n90 CS_BIAS.n2 161.3
R116 CS_BIAS.n92 CS_BIAS.n91 161.3
R117 CS_BIAS.n93 CS_BIAS.n1 161.3
R118 CS_BIAS.n95 CS_BIAS.n94 161.3
R119 CS_BIAS.n96 CS_BIAS.n0 161.3
R120 CS_BIAS.n578 CS_BIAS.n534 161.3
R121 CS_BIAS.n577 CS_BIAS.n576 161.3
R122 CS_BIAS.n575 CS_BIAS.n535 161.3
R123 CS_BIAS.n574 CS_BIAS.n573 161.3
R124 CS_BIAS.n572 CS_BIAS.n536 161.3
R125 CS_BIAS.n570 CS_BIAS.n569 161.3
R126 CS_BIAS.n568 CS_BIAS.n537 161.3
R127 CS_BIAS.n567 CS_BIAS.n566 161.3
R128 CS_BIAS.n565 CS_BIAS.n538 161.3
R129 CS_BIAS.n564 CS_BIAS.n563 161.3
R130 CS_BIAS.n562 CS_BIAS.n561 161.3
R131 CS_BIAS.n560 CS_BIAS.n540 161.3
R132 CS_BIAS.n559 CS_BIAS.n558 161.3
R133 CS_BIAS.n557 CS_BIAS.n541 161.3
R134 CS_BIAS.n556 CS_BIAS.n555 161.3
R135 CS_BIAS.n553 CS_BIAS.n542 161.3
R136 CS_BIAS.n552 CS_BIAS.n551 161.3
R137 CS_BIAS.n550 CS_BIAS.n543 161.3
R138 CS_BIAS.n549 CS_BIAS.n548 161.3
R139 CS_BIAS.n547 CS_BIAS.n544 161.3
R140 CS_BIAS.n530 CS_BIAS.n486 161.3
R141 CS_BIAS.n529 CS_BIAS.n528 161.3
R142 CS_BIAS.n527 CS_BIAS.n487 161.3
R143 CS_BIAS.n526 CS_BIAS.n525 161.3
R144 CS_BIAS.n524 CS_BIAS.n488 161.3
R145 CS_BIAS.n522 CS_BIAS.n521 161.3
R146 CS_BIAS.n520 CS_BIAS.n489 161.3
R147 CS_BIAS.n519 CS_BIAS.n518 161.3
R148 CS_BIAS.n517 CS_BIAS.n490 161.3
R149 CS_BIAS.n516 CS_BIAS.n515 161.3
R150 CS_BIAS.n514 CS_BIAS.n513 161.3
R151 CS_BIAS.n512 CS_BIAS.n492 161.3
R152 CS_BIAS.n511 CS_BIAS.n510 161.3
R153 CS_BIAS.n509 CS_BIAS.n493 161.3
R154 CS_BIAS.n508 CS_BIAS.n507 161.3
R155 CS_BIAS.n505 CS_BIAS.n494 161.3
R156 CS_BIAS.n504 CS_BIAS.n503 161.3
R157 CS_BIAS.n502 CS_BIAS.n495 161.3
R158 CS_BIAS.n501 CS_BIAS.n500 161.3
R159 CS_BIAS.n499 CS_BIAS.n496 161.3
R160 CS_BIAS.n482 CS_BIAS.n438 161.3
R161 CS_BIAS.n481 CS_BIAS.n480 161.3
R162 CS_BIAS.n479 CS_BIAS.n439 161.3
R163 CS_BIAS.n478 CS_BIAS.n477 161.3
R164 CS_BIAS.n476 CS_BIAS.n440 161.3
R165 CS_BIAS.n474 CS_BIAS.n473 161.3
R166 CS_BIAS.n472 CS_BIAS.n441 161.3
R167 CS_BIAS.n471 CS_BIAS.n470 161.3
R168 CS_BIAS.n469 CS_BIAS.n442 161.3
R169 CS_BIAS.n468 CS_BIAS.n467 161.3
R170 CS_BIAS.n466 CS_BIAS.n465 161.3
R171 CS_BIAS.n464 CS_BIAS.n444 161.3
R172 CS_BIAS.n463 CS_BIAS.n462 161.3
R173 CS_BIAS.n461 CS_BIAS.n445 161.3
R174 CS_BIAS.n460 CS_BIAS.n459 161.3
R175 CS_BIAS.n457 CS_BIAS.n446 161.3
R176 CS_BIAS.n456 CS_BIAS.n455 161.3
R177 CS_BIAS.n454 CS_BIAS.n447 161.3
R178 CS_BIAS.n453 CS_BIAS.n452 161.3
R179 CS_BIAS.n451 CS_BIAS.n448 161.3
R180 CS_BIAS.n434 CS_BIAS.n390 161.3
R181 CS_BIAS.n433 CS_BIAS.n432 161.3
R182 CS_BIAS.n431 CS_BIAS.n391 161.3
R183 CS_BIAS.n430 CS_BIAS.n429 161.3
R184 CS_BIAS.n428 CS_BIAS.n392 161.3
R185 CS_BIAS.n426 CS_BIAS.n425 161.3
R186 CS_BIAS.n424 CS_BIAS.n393 161.3
R187 CS_BIAS.n423 CS_BIAS.n422 161.3
R188 CS_BIAS.n421 CS_BIAS.n394 161.3
R189 CS_BIAS.n420 CS_BIAS.n419 161.3
R190 CS_BIAS.n418 CS_BIAS.n417 161.3
R191 CS_BIAS.n416 CS_BIAS.n396 161.3
R192 CS_BIAS.n415 CS_BIAS.n414 161.3
R193 CS_BIAS.n413 CS_BIAS.n397 161.3
R194 CS_BIAS.n412 CS_BIAS.n411 161.3
R195 CS_BIAS.n409 CS_BIAS.n398 161.3
R196 CS_BIAS.n408 CS_BIAS.n407 161.3
R197 CS_BIAS.n406 CS_BIAS.n399 161.3
R198 CS_BIAS.n405 CS_BIAS.n404 161.3
R199 CS_BIAS.n403 CS_BIAS.n400 161.3
R200 CS_BIAS.n361 CS_BIAS.n317 161.3
R201 CS_BIAS.n360 CS_BIAS.n359 161.3