* NGSPICE file created from diff_pair_sample_0521.ext - technology: sky130A

.subckt diff_pair_sample_0521 VTAIL VN VP B VDD2 VDD1
X0 VDD1.t7 VP.t0 VTAIL.t8 B.t4 sky130_fd_pr__nfet_01v8 ad=1.0362 pd=6.61 as=2.4492 ps=13.34 w=6.28 l=2.9
X1 VTAIL.t10 VP.t1 VDD1.t6 B.t6 sky130_fd_pr__nfet_01v8 ad=2.4492 pd=13.34 as=1.0362 ps=6.61 w=6.28 l=2.9
X2 VTAIL.t6 VN.t0 VDD2.t7 B.t6 sky130_fd_pr__nfet_01v8 ad=2.4492 pd=13.34 as=1.0362 ps=6.61 w=6.28 l=2.9
X3 VDD2.t6 VN.t1 VTAIL.t0 B.t0 sky130_fd_pr__nfet_01v8 ad=1.0362 pd=6.61 as=2.4492 ps=13.34 w=6.28 l=2.9
X4 VDD1.t5 VP.t2 VTAIL.t13 B.t1 sky130_fd_pr__nfet_01v8 ad=1.0362 pd=6.61 as=1.0362 ps=6.61 w=6.28 l=2.9
X5 VTAIL.t7 VN.t2 VDD2.t5 B.t7 sky130_fd_pr__nfet_01v8 ad=2.4492 pd=13.34 as=1.0362 ps=6.61 w=6.28 l=2.9
X6 VDD1.t4 VP.t3 VTAIL.t12 B.t3 sky130_fd_pr__nfet_01v8 ad=1.0362 pd=6.61 as=1.0362 ps=6.61 w=6.28 l=2.9
X7 VDD2.t4 VN.t3 VTAIL.t1 B.t1 sky130_fd_pr__nfet_01v8 ad=1.0362 pd=6.61 as=1.0362 ps=6.61 w=6.28 l=2.9
X8 B.t21 B.t19 B.t20 B.t13 sky130_fd_pr__nfet_01v8 ad=2.4492 pd=13.34 as=0 ps=0 w=6.28 l=2.9
X9 B.t18 B.t16 B.t17 B.t9 sky130_fd_pr__nfet_01v8 ad=2.4492 pd=13.34 as=0 ps=0 w=6.28 l=2.9
X10 VTAIL.t15 VP.t4 VDD1.t3 B.t5 sky130_fd_pr__nfet_01v8 ad=1.0362 pd=6.61 as=1.0362 ps=6.61 w=6.28 l=2.9
X11 VDD2.t3 VN.t4 VTAIL.t4 B.t4 sky130_fd_pr__nfet_01v8 ad=1.0362 pd=6.61 as=2.4492 ps=13.34 w=6.28 l=2.9
X12 VTAIL.t5 VN.t5 VDD2.t2 B.t5 sky130_fd_pr__nfet_01v8 ad=1.0362 pd=6.61 as=1.0362 ps=6.61 w=6.28 l=2.9
X13 B.t15 B.t12 B.t14 B.t13 sky130_fd_pr__nfet_01v8 ad=2.4492 pd=13.34 as=0 ps=0 w=6.28 l=2.9
X14 VTAIL.t11 VP.t5 VDD1.t2 B.t7 sky130_fd_pr__nfet_01v8 ad=2.4492 pd=13.34 as=1.0362 ps=6.61 w=6.28 l=2.9
X15 VTAIL.t14 VP.t6 VDD1.t1 B.t2 sky130_fd_pr__nfet_01v8 ad=1.0362 pd=6.61 as=1.0362 ps=6.61 w=6.28 l=2.9
X16 VDD1.t0 VP.t7 VTAIL.t9 B.t0 sky130_fd_pr__nfet_01v8 ad=1.0362 pd=6.61 as=2.4492 ps=13.34 w=6.28 l=2.9
X17 VTAIL.t2 VN.t6 VDD2.t1 B.t2 sky130_fd_pr__nfet_01v8 ad=1.0362 pd=6.61 as=1.0362 ps=6.61 w=6.28 l=2.9
X18 B.t11 B.t8 B.t10 B.t9 sky130_fd_pr__nfet_01v8 ad=2.4492 pd=13.34 as=0 ps=0 w=6.28 l=2.9
X19 VDD2.t0 VN.t7 VTAIL.t3 B.t3 sky130_fd_pr__nfet_01v8 ad=1.0362 pd=6.61 as=1.0362 ps=6.61 w=6.28 l=2.9
R0 VP.n19 VP.n16 161.3
R1 VP.n21 VP.n20 161.3
R2 VP.n22 VP.n15 161.3
R3 VP.n24 VP.n23 161.3
R4 VP.n25 VP.n14 161.3
R5 VP.n28 VP.n27 161.3
R6 VP.n29 VP.n13 161.3
R7 VP.n31 VP.n30 161.3
R8 VP.n32 VP.n12 161.3
R9 VP.n34 VP.n33 161.3
R10 VP.n35 VP.n11 161.3
R11 VP.n37 VP.n36 161.3
R12 VP.n38 VP.n10 161.3
R13 VP.n74 VP.n0 161.3
R14 VP.n73 VP.n72 161.3
R15 VP.n71 VP.n1 161.3
R16 VP.n70 VP.n69 161.3
R17 VP.n68 VP.n2 161.3
R18 VP.n67 VP.n66 161.3
R19 VP.n65 VP.n3 161.3
R20 VP.n64 VP.n63 161.3
R21 VP.n61 VP.n4 161.3
R22 VP.n60 VP.n59 161.3
R23 VP.n58 VP.n5 161.3
R24 VP.n57 VP.n56 161.3
R25 VP.n55 VP.n6 161.3
R26 VP.n53 VP.n52 161.3
R27 VP.n51 VP.n7 161.3
R28 VP.n50 VP.n49 161.3
R29 VP.n48 VP.n8 161.3
R30 VP.n47 VP.n46 161.3
R31 VP.n45 VP.n9 161.3
R32 VP.n44 VP.n43 161.3
R33 VP.n42 VP.n41 106.236
R34 VP.n76 VP.n75 106.236
R35 VP.n40 VP.n39 106.236
R36 VP.n17 VP.t1 86.0624
R37 VP.n60 VP.n5 56.5617
R38 VP.n24 VP.n15 56.5617
R39 VP.n18 VP.n17 55.9508
R40 VP.n42 VP.t5 52.1895
R41 VP.n54 VP.t2 52.1895
R42 VP.n62 VP.t6 52.1895
R43 VP.n75 VP.t0 52.1895
R44 VP.n39 VP.t7 52.1895
R45 VP.n26 VP.t4 52.1895
R46 VP.n18 VP.t3 52.1895
R47 VP.n41 VP.n40 47.9769
R48 VP.n49 VP.n48 42.5146
R49 VP.n69 VP.n68 42.5146
R50 VP.n33 VP.n32 42.5146
R51 VP.n48 VP.n47 38.6395
R52 VP.n69 VP.n1 38.6395
R53 VP.n33 VP.n11 38.6395
R54 VP.n43 VP.n9 24.5923
R55 VP.n47 VP.n9 24.5923
R56 VP.n49 VP.n7 24.5923
R57 VP.n53 VP.n7 24.5923
R58 VP.n56 VP.n55 24.5923
R59 VP.n56 VP.n5 24.5923
R60 VP.n61 VP.n60 24.5923
R61 VP.n63 VP.n61 24.5923
R62 VP.n67 VP.n3 24.5923
R63 VP.n68 VP.n67 24.5923
R64 VP.n73 VP.n1 24.5923
R65 VP.n74 VP.n73 24.5923
R66 VP.n37 VP.n11 24.5923
R67 VP.n38 VP.n37 24.5923
R68 VP.n25 VP.n24 24.5923
R69 VP.n27 VP.n25 24.5923
R70 VP.n31 VP.n13 24.5923
R71 VP.n32 VP.n31 24.5923
R72 VP.n20 VP.n19 24.5923
R73 VP.n20 VP.n15 24.5923
R74 VP.n55 VP.n54 17.9525
R75 VP.n63 VP.n62 17.9525
R76 VP.n27 VP.n26 17.9525
R77 VP.n19 VP.n18 17.9525
R78 VP.n54 VP.n53 6.6403
R79 VP.n62 VP.n3 6.6403
R80 VP.n26 VP.n13 6.6403
R81 VP.n17 VP.n16 4.9785
R82 VP.n43 VP.n42 4.67295
R83 VP.n75 VP.n74 4.67295
R84 VP.n39 VP.n38 4.67295
R85 VP.n40 VP.n10 0.278335
R86 VP.n44 VP.n41 0.278335
R87 VP.n76 VP.n0 0.278335
R88 VP.n21 VP.n16 0.189894
R89 VP.n22 VP.n21 0.189894
R90 VP.n23 VP.n22 0.189894
R91 VP.n23 VP.n14 0.189894
R92 VP.n28 VP.n14 0.189894
R93 VP.n29 VP.n28 0.189894
R94 VP.n30 VP.n29 0.189894
R95 VP.n30 VP.n12 0.189894
R96 VP.n34 VP.n12 0.189894
R97 VP.n35 VP.n34 0.189894
R98 VP.n36 VP.n35 0.189894
R99 VP.n36 VP.n10 0.189894
R100 VP.n45 VP.n44 0.189894
R101 VP.n46 VP.n45 0.189894
R102 VP.n46 VP.n8 0.189894
R103 VP.n50 VP.n8 0.189894
R104 VP.n51 VP.n50 0.189894
R105 VP.n52 VP.n51 0.189894
R106 VP.n52 VP.n6 0.189894
R107 VP.n57 VP.n6 0.189894
R108 VP.n58 VP.n57 0.189894
R109 VP.n59 VP.n58 0.189894
R110 VP.n59 VP.n4 0.189894
R111 VP.n64 VP.n4 0.189894
R112 VP.n65 VP.n64 0.189894
R113 VP.n66 VP.n65 0.189894
R114 VP.n66 VP.n2 0.189894
R115 VP.n70 VP.n2 0.189894
R116 VP.n71 VP.n70 0.189894
R117 VP.n72 VP.n71 0.189894
R118 VP.n72 VP.n0 0.189894
R119 VP VP.n76 0.153485
R120 VTAIL.n11 VTAIL.t10 51.5186
R121 VTAIL.n10 VTAIL.t4 51.5186
R122 VTAIL.n7 VTAIL.t7 51.5186
R123 VTAIL.n15 VTAIL.t0 51.5185
R124 VTAIL.n2 VTAIL.t6 51.5185
R125 VTAIL.n3 VTAIL.t8 51.5185
R126 VTAIL.n6 VTAIL.t11 51.5185
R127 VTAIL.n14 VTAIL.t9 51.5185
R128 VTAIL.n13 VTAIL.n12 48.3657
R129 VTAIL.n9 VTAIL.n8 48.3657
R130 VTAIL.n1 VTAIL.n0 48.3655
R131 VTAIL.n5 VTAIL.n4 48.3655
R132 VTAIL.n15 VTAIL.n14 20.5652
R133 VTAIL.n7 VTAIL.n6 20.5652
R134 VTAIL.n0 VTAIL.t3 3.15337
R135 VTAIL.n0 VTAIL.t5 3.15337
R136 VTAIL.n4 VTAIL.t13 3.15337
R137 VTAIL.n4 VTAIL.t14 3.15337
R138 VTAIL.n12 VTAIL.t12 3.15337
R139 VTAIL.n12 VTAIL.t15 3.15337
R140 VTAIL.n8 VTAIL.t1 3.15337
R141 VTAIL.n8 VTAIL.t2 3.15337
R142 VTAIL.n9 VTAIL.n7 2.78498
R143 VTAIL.n10 VTAIL.n9 2.78498
R144 VTAIL.n13 VTAIL.n11 2.78498
R145 VTAIL.n14 VTAIL.n13 2.78498
R146 VTAIL.n6 VTAIL.n5 2.78498
R147 VTAIL.n5 VTAIL.n3 2.78498
R148 VTAIL.n2 VTAIL.n1 2.78498
R149 VTAIL VTAIL.n15 2.72679
R150 VTAIL.n11 VTAIL.n10 0.470328
R151 VTAIL.n3 VTAIL.n2 0.470328
R152 VTAIL VTAIL.n1 0.0586897
R153 VDD1 VDD1.n0 66.495
R154 VDD1.n3 VDD1.n2 66.3812
R155 VDD1.n3 VDD1.n1 66.3812
R156 VDD1.n5 VDD1.n4 65.0444
R157 VDD1.n5 VDD1.n3 42.2423
R158 VDD1.n4 VDD1.t3 3.15337
R159 VDD1.n4 VDD1.t0 3.15337
R160 VDD1.n0 VDD1.t6 3.15337
R161 VDD1.n0 VDD1.t4 3.15337
R162 VDD1.n2 VDD1.t1 3.15337
R163 VDD1.n2 VDD1.t7 3.15337
R164 VDD1.n1 VDD1.t2 3.15337
R165 VDD1.n1 VDD1.t5 3.15337
R166 VDD1 VDD1.n5 1.33455
R167 B.n749 B.n748 585
R168 B.n750 B.n749 585
R169 B.n250 B.n132 585
R170 B.n249 B.n248 585
R171 B.n247 B.n246 585
R172 B.n245 B.n244 585
R173 B.n243 B.n242 585
R174 B.n241 B.n240 585
R175 B.n239 B.n238 585
R176 B.n237 B.n236 585
R177 B.n235 B.n234 585
R178 B.n233 B.n232 585
R179 B.n231 B.n230 585
R180 B.n229 B.n228 585
R181 B.n227 B.n226 585
R182 B.n225 B.n224 585
R183 B.n223 B.n222 585
R184 B.n221 B.n220 585
R185 B.n219 B.n218 585
R186 B.n217 B.n216 585
R187 B.n215 B.n214 585
R188 B.n213 B.n212 585
R189 B.n211 B.n210 585
R190 B.n209 B.n208 585
R191 B.n207 B.n206 585
R192 B.n205 B.n204 585
R193 B.n203 B.n202 585
R194 B.n201 B.n200 585
R195 B.n199 B.n198 585
R196 B.n197 B.n196 585
R197 B.n195 B.n194 585
R198 B.n193 B.n192 585
R199 B.n191 B.n190 585
R200 B.n189 B.n188 585
R201 B.n187 B.n186 585
R202 B.n184 B.n183 585
R203 B.n182 B.n181 585
R204 B.n180 B.n179 585
R205 B.n178 B.n177 585
R206 B.n176 B.n175 585
R207 B.n174 B.n173 585
R208 B.n172 B.n171 585
R209 B.n170 B.n169 585
R210 B.n168 B.n167 585
R211 B.n166 B.n165 585
R212 B.n164 B.n163 585
R213 B.n162 B.n161 585
R214 B.n160 B.n159 585
R215 B.n158 B.n157 585
R216 B.n156 B.n155 585
R217 B.n154 B.n153 585
R218 B.n152 B.n151 585
R219 B.n150 B.n149 585
R220 B.n148 B.n147 585
R221 B.n146 B.n145 585
R222 B.n144 B.n143 585
R223 B.n142 B.n141 585
R224 B.n140 B.n139 585
R225 B.n103 B.n102 585
R226 B.n753 B.n752 585
R227 B.n747 B.n133 585
R228 B.n133 B.n100 585
R229 B.n746 B.n99 585
R230 B.n757 B.n99 585
R231 B.n745 B.n98 585
R232 B.n758 B.n98 585
R233 B.n744 B.n97 585
R234 B.n759 B.n97 585
R235 B.n743 B.n742 585
R236 B.n742 B.n93 585
R237 B.n741 B.n92 585
R238 B.n765 B.n92 585
R239 B.n740 B.n91 585
R240 B.n766 B.n91 585
R241 B.n739 B.n90 585
R242 B.n767 B.n90 585
R243 B.n738 B.n737 585
R244 B.n737 B.n86 585
R245 B.n736 B.n85 585
R246 B.n773 B.n85 585
R247 B.n735 B.n84 585
R248 B.n774 B.n84 585
R249 B.n734 B.n83 585
R250 B.n775 B.n83 585
R251 B.n733 B.n732 585
R252 B.n732 B.n79 585
R253 B.n731 B.n78 585
R254 B.n781 B.n78 585
R255 B.n730 B.n77 585
R256 B.n782 B.n77 585
R257 B.n729 B.n76 585
R258 B.n783 B.n76 585
R259 B.n728 B.n727 585
R260 B.n727 B.n72 585
R261 B.n726 B.n71 585
R262 B.n789 B.n71 585
R263 B.n725 B.n70 585
R264 B.n790 B.n70 585
R265 B.n724 B.n69 585
R266 B.n791 B.n69 585
R267 B.n723 B.n722 585
R268 B.n722 B.n68 585
R269 B.n721 B.n64 585
R270 B.n797 B.n64 585
R271 B.n720 B.n63 585
R272 B.n798 B.n63 585
R273 B.n719 B.n62 585
R274 B.n799 B.n62 585
R275 B.n718 B.n717 585
R276 B.n717 B.n58 585
R277 B.n716 B.n57 585
R278 B.n805 B.n57 585
R279 B.n715 B.n56 585
R280 B.n806 B.n56 585
R281 B.n714 B.n55 585
R282 B.n807 B.n55 585
R283 B.n713 B.n712 585
R284 B.n712 B.n51 585
R285 B.n711 B.n50 585
R286 B.n813 B.n50 585
R287 B.n710 B.n49 585
R288 B.n814 B.n49 585
R289 B.n709 B.n48 585
R290 B.n815 B.n48 585
R291 B.n708 B.n707 585
R292 B.n707 B.n44 585
R293 B.n706 B.n43 585
R294 B.n821 B.n43 585
R295 B.n705 B.n42 585
R296 B.n822 B.n42 585
R297 B.n704 B.n41 585
R298 B.n823 B.n41 585
R299 B.n703 B.n702 585
R300 B.n702 B.n37 585
R301 B.n701 B.n36 585
R302 B.n829 B.n36 585
R303 B.n700 B.n35 585
R304 B.n830 B.n35 585
R305 B.n699 B.n34 585
R306 B.n831 B.n34 585
R307 B.n698 B.n697 585
R308 B.n697 B.n30 585
R309 B.n696 B.n29 585
R310 B.n837 B.n29 585
R311 B.n695 B.n28 585
R312 B.n838 B.n28 585
R313 B.n694 B.n27 585
R314 B.n839 B.n27 585
R315 B.n693 B.n692 585
R316 B.n692 B.n23 585
R317 B.n691 B.n22 585
R318 B.n845 B.n22 585
R319 B.n690 B.n21 585
R320 B.n846 B.n21 585
R321 B.n689 B.n20 585
R322 B.n847 B.n20 585
R323 B.n688 B.n687 585
R324 B.n687 B.n16 585
R325 B.n686 B.n15 585
R326 B.n853 B.n15 585
R327 B.n685 B.n14 585
R328 B.n854 B.n14 585
R329 B.n684 B.n13 585
R330 B.n855 B.n13 585
R331 B.n683 B.n682 585
R332 B.n682 B.n12 585
R333 B.n681 B.n680 585
R334 B.n681 B.n8 585
R335 B.n679 B.n7 585
R336 B.n862 B.n7 585
R337 B.n678 B.n6 585
R338 B.n863 B.n6 585
R339 B.n677 B.n5 585
R340 B.n864 B.n5 585
R341 B.n676 B.n675 585
R342 B.n675 B.n4 585
R343 B.n674 B.n251 585
R344 B.n674 B.n673 585
R345 B.n664 B.n252 585
R346 B.n253 B.n252 585
R347 B.n666 B.n665 585
R348 B.n667 B.n666 585
R349 B.n663 B.n258 585
R350 B.n258 B.n257 585
R351 B.n662 B.n661 585
R352 B.n661 B.n660 585
R353 B.n260 B.n259 585
R354 B.n261 B.n260 585
R355 B.n653 B.n652 585
R356 B.n654 B.n653 585
R357 B.n651 B.n266 585
R358 B.n266 B.n265 585
R359 B.n650 B.n649 585
R360 B.n649 B.n648 585
R361 B.n268 B.n267 585
R362 B.n269 B.n268 585
R363 B.n641 B.n640 585
R364 B.n642 B.n641 585
R365 B.n639 B.n274 585
R366 B.n274 B.n273 585
R367 B.n638 B.n637 585
R368 B.n637 B.n636 585
R369 B.n276 B.n275 585
R370 B.n277 B.n276 585
R371 B.n629 B.n628 585
R372 B.n630 B.n629 585
R373 B.n627 B.n282 585
R374 B.n282 B.n281 585
R375 B.n626 B.n625 585
R376 B.n625 B.n624 585
R377 B.n284 B.n283 585
R378 B.n285 B.n284 585
R379 B.n617 B.n616 585
R380 B.n618 B.n617 585
R381 B.n615 B.n290 585
R382 B.n290 B.n289 585
R383 B.n614 B.n613 585
R384 B.n613 B.n612 585
R385 B.n292 B.n291 585
R386 B.n293 B.n292 585
R387 B.n605 B.n604 585
R388 B.n606 B.n605 585
R389 B.n603 B.n297 585
R390 B.n301 B.n297 585
R391 B.n602 B.n601 585
R392 B.n601 B.n600 585
R393 B.n299 B.n298 585
R394 B.n300 B.n299 585
R395 B.n593 B.n592 585
R396 B.n594 B.n593 585
R397 B.n591 B.n306 585
R398 B.n306 B.n305 585
R399 B.n590 B.n589 585
R400 B.n589 B.n588 585
R401 B.n308 B.n307 585
R402 B.n309 B.n308 585
R403 B.n581 B.n580 585
R404 B.n582 B.n581 585
R405 B.n579 B.n314 585
R406 B.n314 B.n313 585
R407 B.n578 B.n577 585
R408 B.n577 B.n576 585
R409 B.n316 B.n315 585
R410 B.n569 B.n316 585
R411 B.n568 B.n567 585
R412 B.n570 B.n568 585
R413 B.n566 B.n321 585
R414 B.n321 B.n320 585
R415 B.n565 B.n564 585
R416 B.n564 B.n563 585
R417 B.n323 B.n322 585
R418 B.n324 B.n323 585
R419 B.n556 B.n555 585
R420 B.n557 B.n556 585
R421 B.n554 B.n329 585
R422 B.n329 B.n328 585
R423 B.n553 B.n552 585
R424 B.n552 B.n551 585
R425 B.n331 B.n330 585
R426 B.n332 B.n331 585
R427 B.n544 B.n543 585
R428 B.n545 B.n544 585
R429 B.n542 B.n337 585
R430 B.n337 B.n336 585
R431 B.n541 B.n540 585
R432 B.n540 B.n539 585
R433 B.n339 B.n338 585
R434 B.n340 B.n339 585
R435 B.n532 B.n531 585
R436 B.n533 B.n532 585
R437 B.n530 B.n345 585
R438 B.n345 B.n344 585
R439 B.n529 B.n528 585
R440 B.n528 B.n527 585
R441 B.n347 B.n346 585
R442 B.n348 B.n347 585
R443 B.n520 B.n519 585
R444 B.n521 B.n520 585
R445 B.n518 B.n353 585
R446 B.n353 B.n352 585
R447 B.n517 B.n516 585
R448 B.n516 B.n515 585
R449 B.n355 B.n354 585
R450 B.n356 B.n355 585
R451 B.n511 B.n510 585
R452 B.n359 B.n358 585
R453 B.n507 B.n506 585
R454 B.n508 B.n507 585
R455 B.n505 B.n388 585
R456 B.n504 B.n503 585
R457 B.n502 B.n501 585
R458 B.n500 B.n499 585
R459 B.n498 B.n497 585
R460 B.n496 B.n495 585
R461 B.n494 B.n493 585
R462 B.n492 B.n491 585
R463 B.n490 B.n489 585
R464 B.n488 B.n487 585
R465 B.n486 B.n485 585
R466 B.n484 B.n483 585
R467 B.n482 B.n481 585
R468 B.n480 B.n479 585
R469 B.n478 B.n477 585
R470 B.n476 B.n475 585
R471 B.n474 B.n473 585
R472 B.n472 B.n471 585
R473 B.n470 B.n469 585
R474 B.n468 B.n467 585
R475 B.n466 B.n465 585
R476 B.n464 B.n463 585
R477 B.n462 B.n461 585
R478 B.n460 B.n459 585
R479 B.n458 B.n457 585
R480 B.n456 B.n455 585
R481 B.n454 B.n453 585
R482 B.n452 B.n451 585
R483 B.n450 B.n449 585
R484 B.n448 B.n447 585
R485 B.n446 B.n445 585
R486 B.n443 B.n442 585
R487 B.n441 B.n440 585
R488 B.n439 B.n438 585
R489 B.n437 B.n436 585
R490 B.n435 B.n434 585
R491 B.n433 B.n432 585
R492 B.n431 B.n430 585
R493 B.n429 B.n428 585
R494 B.n427 B.n426 585
R495 B.n425 B.n424 585
R496 B.n423 B.n422 585
R497 B.n421 B.n420 585
R498 B.n419 B.n418 585
R499 B.n417 B.n416 585
R500 B.n415 B.n414 585
R501 B.n413 B.n412 585
R502 B.n411 B.n410 585
R503 B.n409 B.n408 585
R504 B.n407 B.n406 585
R505 B.n405 B.n404 585
R506 B.n403 B.n402 585
R507 B.n401 B.n400 585
R508 B.n399 B.n398 585
R509 B.n397 B.n396 585
R510 B.n395 B.n394 585
R511 B.n512 B.n357 585
R512 B.n357 B.n356 585
R513 B.n514 B.n513 585
R514 B.n515 B.n514 585
R515 B.n351 B.n350 585
R516 B.n352 B.n351 585
R517 B.n523 B.n522 585
R518 B.n522 B.n521 585
R519 B.n524 B.n349 585
R520 B.n349 B.n348 585
R521 B.n526 B.n525 585
R522 B.n527 B.n526 585
R523 B.n343 B.n342 585
R524 B.n344 B.n343 585
R525 B.n535 B.n534 585
R526 B.n534 B.n533 585
R527 B.n536 B.n341 585
R528 B.n341 B.n340 585
R529 B.n538 B.n537 585
R530 B.n539 B.n538 585
R531 B.n335 B.n334 585
R532 B.n336 B.n335 585
R533 B.n547 B.n546 585
R534 B.n546 B.n545 585
R535 B.n548 B.n333 585
R536 B.n333 B.n332 585
R537 B.n550 B.n549 585
R538 B.n551 B.n550 585
R539 B.n327 B.n326 585
R540 B.n328 B.n327 585
R541 B.n559 B.n558 585
R542 B.n558 B.n557 585
R543 B.n560 B.n325 585
R544 B.n325 B.n324 585
R545 B.n562 B.n561 585
R546 B.n563 B.n562 585
R547 B.n319 B.n318 585
R548 B.n320 B.n319 585
R549 B.n572 B.n571 585
R550 B.n571 B.n570 585
R551 B.n573 B.n317 585
R552 B.n569 B.n317 585
R553 B.n575 B.n574 585
R554 B.n576 B.n575 585
R555 B.n312 B.n311 585
R556 B.n313 B.n312 585
R557 B.n584 B.n583 585
R558 B.n583 B.n582 585
R559 B.n585 B.n310 585
R560 B.n310 B.n309 585
R561 B.n587 B.n586 585
R562 B.n588 B.n587 585
R563 B.n304 B.n303 585
R564 B.n305 B.n304 585
R565 B.n596 B.n595 585
R566 B.n595 B.n594 585
R567 B.n597 B.n302 585
R568 B.n302 B.n300 585
R569 B.n599 B.n598 585
R570 B.n600 B.n599 585
R571 B.n296 B.n295 585
R572 B.n301 B.n296 585
R573 B.n608 B.n607 585
R574 B.n607 B.n606 585
R575 B.n609 B.n294 585
R576 B.n294 B.n293 585
R577 B.n611 B.n610 585
R578 B.n612 B.n611 585
R579 B.n288 B.n287 585
R580 B.n289 B.n288 585
R581 B.n620 B.n619 585
R582 B.n619 B.n618 585
R583 B.n621 B.n286 585
R584 B.n286 B.n285 585
R585 B.n623 B.n622 585
R586 B.n624 B.n623 585
R587 B.n280 B.n279 585
R588 B.n281 B.n280 585
R589 B.n632 B.n631 585
R590 B.n631 B.n630 585
R591 B.n633 B.n278 585
R592 B.n278 B.n277 585
R593 B.n635 B.n634 585
R594 B.n636 B.n635 585
R595 B.n272 B.n271 585
R596 B.n273 B.n272 585
R597 B.n644 B.n643 585
R598 B.n643 B.n642 585
R599 B.n645 B.n270 585
R600 B.n270 B.n269 585
R601 B.n647 B.n646 585
R602 B.n648 B.n647 585
R603 B.n264 B.n263 585
R604 B.n265 B.n264 585
R605 B.n656 B.n655 585
R606 B.n655 B.n654 585
R607 B.n657 B.n262 585
R608 B.n262 B.n261 585
R609 B.n659 B.n658 585
R610 B.n660 B.n659 585
R611 B.n256 B.n255 585
R612 B.n257 B.n256 585
R613 B.n669 B.n668 585
R614 B.n668 B.n667 585
R615 B.n670 B.n254 585
R616 B.n254 B.n253 585
R617 B.n672 B.n671 585
R618 B.n673 B.n672 585
R619 B.n3 B.n0 585
R620 B.n4 B.n3 585
R621 B.n861 B.n1 585
R622 B.n862 B.n861 585
R623 B.n860 B.n859 585
R624 B.n860 B.n8 585
R625 B.n858 B.n9 585
R626 B.n12 B.n9 585
R627 B.n857 B.n856 585
R628 B.n856 B.n855 585
R629 B.n11 B.n10 585
R630 B.n854 B.n11 585
R631 B.n852 B.n851 585
R632 B.n853 B.n852 585
R633 B.n850 B.n17 585
R634 B.n17 B.n16 585
R635 B.n849 B.n848 585
R636 B.n848 B.n847 585
R637 B.n19 B.n18 585
R638 B.n846 B.n19 585
R639 B.n844 B.n843 585
R640 B.n845 B.n844 585
R641 B.n842 B.n24 585
R642 B.n24 B.n23 585
R643 B.n841 B.n840 585
R644 B.n840 B.n839 585
R645 B.n26 B.n25 585
R646 B.n838 B.n26 585
R647 B.n836 B.n835 585
R648 B.n837 B.n836 585
R649 B.n834 B.n31 585
R650 B.n31 B.n30 585
R651 B.n833 B.n832 585
R652 B.n832 B.n831 585
R653 B.n33 B.n32 585
R654 B.n830 B.n33 585
R655 B.n828 B.n827 585
R656 B.n829 B.n828 585
R657 B.n826 B.n38 585
R658 B.n38 B.n37 585
R659 B.n825 B.n824 585
R660 B.n824 B.n823 585
R661 B.n40 B.n39 585
R662 B.n822 B.n40 585
R663 B.n820 B.n819 585
R664 B.n821 B.n820 585
R665 B.n818 B.n45 585
R666 B.n45 B.n44 585
R667 B.n817 B.n816 585
R668 B.n816 B.n815 585
R669 B.n47 B.n46 585
R670 B.n814 B.n47 585
R671 B.n812 B.n811 585
R672 B.n813 B.n812 585
R673 B.n810 B.n52 585
R674 B.n52 B.n51 585
R675 B.n809 B.n808 585
R676 B.n808 B.n807 585
R677 B.n54 B.n53 585
R678 B.n806 B.n54 585
R679 B.n804 B.n803 585
R680 B.n805 B.n804 585
R681 B.n802 B.n59 585
R682 B.n59 B.n58 585
R683 B.n801 B.n800 585
R684 B.n800 B.n799 585
R685 B.n61 B.n60 585
R686 B.n798 B.n61 585
R687 B.n796 B.n795 585
R688 B.n797 B.n796 585
R689 B.n794 B.n65 585
R690 B.n68 B.n65 585
R691 B.n793 B.n792 585
R692 B.n792 B.n791 585
R693 B.n67 B.n66 585
R694 B.n790 B.n67 585
R695 B.n788 B.n787 585
R696 B.n789 B.n788 585
R697 B.n786 B.n73 585
R698 B.n73 B.n72 585
R699 B.n785 B.n784 585
R700 B.n784 B.n783 585
R701 B.n75 B.n74 585
R702 B.n782 B.n75 585
R703 B.n780 B.n779 585
R704 B.n781 B.n780 585
R705 B.n778 B.n80 585
R706 B.n80 B.n79 585
R707 B.n777 B.n776 585
R708 B.n776 B.n775 585
R709 B.n82 B.n81 585
R710 B.n774 B.n82 585
R711 B.n772 B.n771 585
R712 B.n773 B.n772 585
R713 B.n770 B.n87 585
R714 B.n87 B.n86 585
R715 B.n769 B.n768 585
R716 B.n768 B.n767 585
R717 B.n89 B.n88 585
R718 B.n766 B.n89 585
R719 B.n764 B.n763 585
R720 B.n765 B.n764 585
R721 B.n762 B.n94 585
R722 B.n94 B.n93 585
R723 B.n761 B.n760 585
R724 B.n760 B.n759 585
R725 B.n96 B.n95 585
R726 B.n758 B.n96 585
R727 B.n756 B.n755 585
R728 B.n757 B.n756 585
R729 B.n754 B.n101 585
R730 B.n101 B.n100 585
R731 B.n865 B.n864 585
R732 B.n863 B.n2 585
R733 B.n752 B.n101 530.939
R734 B.n749 B.n133 530.939
R735 B.n394 B.n355 530.939
R736 B.n510 B.n357 530.939
R737 B.n137 B.t16 260.647
R738 B.n134 B.t8 260.647
R739 B.n392 B.t12 260.647
R740 B.n389 B.t19 260.647
R741 B.n750 B.n131 256.663
R742 B.n750 B.n130 256.663
R743 B.n750 B.n129 256.663
R744 B.n750 B.n128 256.663
R745 B.n750 B.n127 256.663
R746 B.n750 B.n126 256.663
R747 B.n750 B.n125 256.663
R748 B.n750 B.n124 256.663
R749 B.n750 B.n123 256.663
R750 B.n750 B.n122 256.663
R751 B.n750 B.n121 256.663
R752 B.n750 B.n120 256.663
R753 B.n750 B.n119 256.663
R754 B.n750 B.n118 256.663
R755 B.n750 B.n117 256.663
R756 B.n750 B.n116 256.663
R757 B.n750 B.n115 256.663
R758 B.n750 B.n114 256.663
R759 B.n750 B.n113 256.663
R760 B.n750 B.n112 256.663
R761 B.n750 B.n111 256.663
R762 B.n750 B.n110 256.663
R763 B.n750 B.n109 256.663
R764 B.n750 B.n108 256.663
R765 B.n750 B.n107 256.663
R766 B.n750 B.n106 256.663
R767 B.n750 B.n105 256.663
R768 B.n750 B.n104 256.663
R769 B.n751 B.n750 256.663
R770 B.n509 B.n508 256.663
R771 B.n508 B.n360 256.663
R772 B.n508 B.n361 256.663
R773 B.n508 B.n362 256.663
R774 B.n508 B.n363 256.663
R775 B.n508 B.n364 256.663
R776 B.n508 B.n365 256.663
R777 B.n508 B.n366 256.663
R778 B.n508 B.n367 256.663
R779 B.n508 B.n368 256.663
R780 B.n508 B.n369 256.663
R781 B.n508 B.n370 256.663
R782 B.n508 B.n371 256.663
R783 B.n508 B.n372 256.663
R784 B.n508 B.n373 256.663
R785 B.n508 B.n374 256.663
R786 B.n508 B.n375 256.663
R787 B.n508 B.n376 256.663
R788 B.n508 B.n377 256.663
R789 B.n508 B.n378 256.663
R790 B.n508 B.n379 256.663
R791 B.n508 B.n380 256.663
R792 B.n508 B.n381 256.663
R793 B.n508 B.n382 256.663
R794 B.n508 B.n383 256.663
R795 B.n508 B.n384 256.663
R796 B.n508 B.n385 256.663
R797 B.n508 B.n386 256.663
R798 B.n508 B.n387 256.663
R799 B.n867 B.n866 256.663
R800 B.n139 B.n103 163.367
R801 B.n143 B.n142 163.367
R802 B.n147 B.n146 163.367
R803 B.n151 B.n150 163.367
R804 B.n155 B.n154 163.367
R805 B.n159 B.n158 163.367
R806 B.n163 B.n162 163.367
R807 B.n167 B.n166 163.367
R808 B.n171 B.n170 163.367
R809 B.n175 B.n174 163.367
R810 B.n179 B.n178 163.367
R811 B.n183 B.n182 163.367
R812 B.n188 B.n187 163.367
R813 B.n192 B.n191 163.367
R814 B.n196 B.n195 163.367
R815 B.n200 B.n199 163.367
R816 B.n204 B.n203 163.367
R817 B.n208 B.n207 163.367
R818 B.n212 B.n211 163.367
R819 B.n216 B.n215 163.367
R820 B.n220 B.n219 163.367
R821 B.n224 B.n223 163.367
R822 B.n228 B.n227 163.367
R823 B.n232 B.n231 163.367
R824 B.n236 B.n235 163.367
R825 B.n240 B.n239 163.367
R826 B.n244 B.n243 163.367
R827 B.n248 B.n247 163.367
R828 B.n749 B.n132 163.367
R829 B.n516 B.n355 163.367
R830 B.n516 B.n353 163.367
R831 B.n520 B.n353 163.367
R832 B.n520 B.n347 163.367
R833 B.n528 B.n347 163.367
R834 B.n528 B.n345 163.367
R835 B.n532 B.n345 163.367
R836 B.n532 B.n339 163.367
R837 B.n540 B.n339 163.367
R838 B.n540 B.n337 163.367
R839 B.n544 B.n337 163.367
R840 B.n544 B.n331 163.367
R841 B.n552 B.n331 163.367
R842 B.n552 B.n329 163.367
R843 B.n556 B.n329 163.367
R844 B.n556 B.n323 163.367
R845 B.n564 B.n323 163.367
R846 B.n564 B.n321 163.367
R847 B.n568 B.n321 163.367
R848 B.n568 B.n316 163.367
R849 B.n577 B.n316 163.367
R850 B.n577 B.n314 163.367
R851 B.n581 B.n314 163.367
R852 B.n581 B.n308 163.367
R853 B.n589 B.n308 163.367
R854 B.n589 B.n306 163.367
R855 B.n593 B.n306 163.367
R856 B.n593 B.n299 163.367
R857 B.n601 B.n299 163.367
R858 B.n601 B.n297 163.367
R859 B.n605 B.n297 163.367
R860 B.n605 B.n292 163.367
R861 B.n613 B.n292 163.367
R862 B.n613 B.n290 163.367
R863 B.n617 B.n290 163.367
R864 B.n617 B.n284 163.367
R865 B.n625 B.n284 163.367
R866 B.n625 B.n282 163.367
R867 B.n629 B.n282 163.367
R868 B.n629 B.n276 163.367
R869 B.n637 B.n276 163.367
R870 B.n637 B.n274 163.367
R871 B.n641 B.n274 163.367
R872 B.n641 B.n268 163.367
R873 B.n649 B.n268 163.367
R874 B.n649 B.n266 163.367
R875 B.n653 B.n266 163.367
R876 B.n653 B.n260 163.367
R877 B.n661 B.n260 163.367
R878 B.n661 B.n258 163.367
R879 B.n666 B.n258 163.367
R880 B.n666 B.n252 163.367
R881 B.n674 B.n252 163.367
R882 B.n675 B.n674 163.367
R883 B.n675 B.n5 163.367
R884 B.n6 B.n5 163.367
R885 B.n7 B.n6 163.367
R886 B.n681 B.n7 163.367
R887 B.n682 B.n681 163.367
R888 B.n682 B.n13 163.367
R889 B.n14 B.n13 163.367
R890 B.n15 B.n14 163.367
R891 B.n687 B.n15 163.367
R892 B.n687 B.n20 163.367
R893 B.n21 B.n20 163.367
R894 B.n22 B.n21 163.367
R895 B.n692 B.n22 163.367
R896 B.n692 B.n27 163.367
R897 B.n28 B.n27 163.367
R898 B.n29 B.n28 163.367
R899 B.n697 B.n29 163.367
R900 B.n697 B.n34 163.367
R901 B.n35 B.n34 163.367
R902 B.n36 B.n35 163.367
R903 B.n702 B.n36 163.367
R904 B.n702 B.n41 163.367
R905 B.n42 B.n41 163.367
R906 B.n43 B.n42 163.367
R907 B.n707 B.n43 163.367
R908 B.n707 B.n48 163.367
R909 B.n49 B.n48 163.367
R910 B.n50 B.n49 163.367
R911 B.n712 B.n50 163.367
R912 B.n712 B.n55 163.367
R913 B.n56 B.n55 163.367
R914 B.n57 B.n56 163.367
R915 B.n717 B.n57 163.367
R916 B.n717 B.n62 163.367
R917 B.n63 B.n62 163.367
R918 B.n64 B.n63 163.367
R919 B.n722 B.n64 163.367
R920 B.n722 B.n69 163.367
R921 B.n70 B.n69 163.367
R922 B.n71 B.n70 163.367
R923 B.n727 B.n71 163.367
R924 B.n727 B.n76 163.367
R925 B.n77 B.n76 163.367
R926 B.n78 B.n77 163.367
R927 B.n732 B.n78 163.367
R928 B.n732 B.n83 163.367
R929 B.n84 B.n83 163.367
R930 B.n85 B.n84 163.367
R931 B.n737 B.n85 163.367
R932 B.n737 B.n90 163.367
R933 B.n91 B.n90 163.367
R934 B.n92 B.n91 163.367
R935 B.n742 B.n92 163.367
R936 B.n742 B.n97 163.367
R937 B.n98 B.n97 163.367
R938 B.n99 B.n98 163.367
R939 B.n133 B.n99 163.367
R940 B.n507 B.n359 163.367
R941 B.n507 B.n388 163.367
R942 B.n503 B.n502 163.367
R943 B.n499 B.n498 163.367
R944 B.n495 B.n494 163.367
R945 B.n491 B.n490 163.367
R946 B.n487 B.n486 163.367
R947 B.n483 B.n482 163.367
R948 B.n479 B.n478 163.367
R949 B.n475 B.n474 163.367
R950 B.n471 B.n470 163.367
R951 B.n467 B.n466 163.367
R952 B.n463 B.n462 163.367
R953 B.n459 B.n458 163.367
R954 B.n455 B.n454 163.367
R955 B.n451 B.n450 163.367
R956 B.n447 B.n446 163.367
R957 B.n442 B.n441 163.367
R958 B.n438 B.n437 163.367
R959 B.n434 B.n433 163.367
R960 B.n430 B.n429 163.367
R961 B.n426 B.n425 163.367
R962 B.n422 B.n421 163.367
R963 B.n418 B.n417 163.367
R964 B.n414 B.n413 163.367
R965 B.n410 B.n409 163.367
R966 B.n406 B.n405 163.367
R967 B.n402 B.n401 163.367
R968 B.n398 B.n397 163.367
R969 B.n514 B.n357 163.367
R970 B.n514 B.n351 163.367
R971 B.n522 B.n351 163.367
R972 B.n522 B.n349 163.367
R973 B.n526 B.n349 163.367
R974 B.n526 B.n343 163.367
R975 B.n534 B.n343 163.367
R976 B.n534 B.n341 163.367
R977 B.n538 B.n341 163.367
R978 B.n538 B.n335 163.367
R979 B.n546 B.n335 163.367
R980 B.n546 B.n333 163.367
R981 B.n550 B.n333 163.367
R982 B.n550 B.n327 163.367
R983 B.n558 B.n327 163.367
R984 B.n558 B.n325 163.367
R985 B.n562 B.n325 163.367
R986 B.n562 B.n319 163.367
R987 B.n571 B.n319 163.367
R988 B.n571 B.n317 163.367
R989 B.n575 B.n317 163.367
R990 B.n575 B.n312 163.367
R991 B.n583 B.n312 163.367
R992 B.n583 B.n310 163.367
R993 B.n587 B.n310 163.367
R994 B.n587 B.n304 163.367
R995 B.n595 B.n304 163.367
R996 B.n595 B.n302 163.367
R997 B.n599 B.n302 163.367
R998 B.n599 B.n296 163.367
R999 B.n607 B.n296 163.367
R1000 B.n607 B.n294 163.367
R1001 B.n611 B.n294 163.367
R1002 B.n611 B.n288 163.367
R1003 B.n619 B.n288 163.367
R1004 B.n619 B.n286 163.367
R1005 B.n623 B.n286 163.367
R1006 B.n623 B.n280 163.367
R1007 B.n631 B.n280 163.367
R1008 B.n631 B.n278 163.367
R1009 B.n635 B.n278 163.367
R1010 B.n635 B.n272 163.367
R1011 B.n643 B.n272 163.367
R1012 B.n643 B.n270 163.367
R1013 B.n647 B.n270 163.367
R1014 B.n647 B.n264 163.367
R1015 B.n655 B.n264 163.367
R1016 B.n655 B.n262 163.367
R1017 B.n659 B.n262 163.367
R1018 B.n659 B.n256 163.367
R1019 B.n668 B.n256 163.367
R1020 B.n668 B.n254 163.367
R1021 B.n672 B.n254 163.367
R1022 B.n672 B.n3 163.367
R1023 B.n865 B.n3 163.367
R1024 B.n861 B.n2 163.367
R1025 B.n861 B.n860 163.367
R1026 B.n860 B.n9 163.367
R1027 B.n856 B.n9 163.367
R1028 B.n856 B.n11 163.367
R1029 B.n852 B.n11 163.367
R1030 B.n852 B.n17 163.367
R1031 B.n848 B.n17 163.367
R1032 B.n848 B.n19 163.367
R1033 B.n844 B.n19 163.367
R1034 B.n844 B.n24 163.367
R1035 B.n840 B.n24 163.367
R1036 B.n840 B.n26 163.367
R1037 B.n836 B.n26 163.367
R1038 B.n836 B.n31 163.367
R1039 B.n832 B.n31 163.367
R1040 B.n832 B.n33 163.367
R1041 B.n828 B.n33 163.367
R1042 B.n828 B.n38 163.367
R1043 B.n824 B.n38 163.367
R1044 B.n824 B.n40 163.367
R1045 B.n820 B.n40 163.367
R1046 B.n820 B.n45 163.367
R1047 B.n816 B.n45 163.367
R1048 B.n816 B.n47 163.367
R1049 B.n812 B.n47 163.367
R1050 B.n812 B.n52 163.367
R1051 B.n808 B.n52 163.367
R1052 B.n808 B.n54 163.367
R1053 B.n804 B.n54 163.367
R1054 B.n804 B.n59 163.367
R1055 B.n800 B.n59 163.367
R1056 B.n800 B.n61 163.367
R1057 B.n796 B.n61 163.367
R1058 B.n796 B.n65 163.367
R1059 B.n792 B.n65 163.367
R1060 B.n792 B.n67 163.367
R1061 B.n788 B.n67 163.367
R1062 B.n788 B.n73 163.367
R1063 B.n784 B.n73 163.367
R1064 B.n784 B.n75 163.367
R1065 B.n780 B.n75 163.367
R1066 B.n780 B.n80 163.367
R1067 B.n776 B.n80 163.367
R1068 B.n776 B.n82 163.367
R1069 B.n772 B.n82 163.367
R1070 B.n772 B.n87 163.367
R1071 B.n768 B.n87 163.367
R1072 B.n768 B.n89 163.367
R1073 B.n764 B.n89 163.367
R1074 B.n764 B.n94 163.367
R1075 B.n760 B.n94 163.367
R1076 B.n760 B.n96 163.367
R1077 B.n756 B.n96 163.367
R1078 B.n756 B.n101 163.367
R1079 B.n134 B.t10 135.042
R1080 B.n392 B.t15 135.042
R1081 B.n137 B.t17 135.035
R1082 B.n389 B.t21 135.035
R1083 B.n508 B.n356 124.709
R1084 B.n750 B.n100 124.709
R1085 B.n135 B.t11 72.399
R1086 B.n393 B.t14 72.399
R1087 B.n138 B.t18 72.3922
R1088 B.n390 B.t20 72.3922
R1089 B.n752 B.n751 71.676
R1090 B.n139 B.n104 71.676
R1091 B.n143 B.n105 71.676
R1092 B.n147 B.n106 71.676
R1093 B.n151 B.n107 71.676
R1094 B.n155 B.n108 71.676
R1095 B.n159 B.n109 71.676
R1096 B.n163 B.n110 71.676
R1097 B.n167 B.n111 71.676
R1098 B.n171 B.n112 71.676
R1099 B.n175 B.n113 71.676
R1100 B.n179 B.n114 71.676
R1101 B.n183 B.n115 71.676
R1102 B.n188 B.n116 71.676
R1103 B.n192 B.n117 71.676
R1104 B.n196 B.n118 71.676
R1105 B.n200 B.n119 71.676
R1106 B.n204 B.n120 71.676
R1107 B.n208 B.n121 71.676
R1108 B.n212 B.n122 71.676
R1109 B.n216 B.n123 71.676
R1110 B.n220 B.n124 71.676
R1111 B.n224 B.n125 71.676
R1112 B.n228 B.n126 71.676
R1113 B.n232 B.n127 71.676
R1114 B.n236 B.n128 71.676
R1115 B.n240 B.n129 71.676
R1116 B.n244 B.n130 71.676
R1117 B.n248 B.n131 71.676
R1118 B.n132 B.n131 71.676
R1119 B.n247 B.n130 71.676
R1120 B.n243 B.n129 71.676
R1121 B.n239 B.n128 71.676
R1122 B.n235 B.n127 71.676
R1123 B.n231 B.n126 71.676