* NGSPICE file created from opamp_sample_0003.ext - technology: sky130A

.subckt opamp_sample_0003 GND VOUT VDD VN VP CS_BIAS DIFFPAIR_BIAS
X0 VDD.t157 a_n24758_8502.t18 VOUT.t78 VDD.t138 sky130_fd_pr__pfet_01v8 ad=1.0131 pd=3.73 as=1.0131 ps=3.73 w=3.07 l=5.49
X1 GND.t154 GND.t152 VP.t3 GND.t153 sky130_fd_pr__nfet_01v8 ad=0.165 pd=1.33 as=0.165 ps=1.33 w=1 l=0.5
X2 GND.t151 GND.t149 VN.t3 GND.t150 sky130_fd_pr__nfet_01v8 ad=0.165 pd=1.33 as=0.165 ps=1.33 w=1 l=0.5
X3 GND.t231 CS_BIAS.t32 VOUT.t104 GND.t171 sky130_fd_pr__nfet_01v8 ad=2.6856 pd=8.9 as=1.2309 ps=4.39 w=3.73 l=5.83
X4 VDD.t71 VDD.t69 VDD.t70 VDD.t44 sky130_fd_pr__pfet_01v8 ad=2.7576 pd=9.1 as=0 ps=0 w=3.83 l=5.98
X5 VDD.t156 a_n24758_8502.t19 VOUT.t77 VDD.t102 sky130_fd_pr__pfet_01v8 ad=1.0131 pd=3.73 as=1.0131 ps=3.73 w=3.07 l=5.49
X6 VOUT.t105 CS_BIAS.t33 GND.t232 GND.t38 sky130_fd_pr__nfet_01v8 ad=1.2309 pd=4.39 as=1.2309 ps=4.39 w=3.73 l=5.83
X7 VDD.t155 a_n24758_8502.t20 VOUT.t53 VDD.t110 sky130_fd_pr__pfet_01v8 ad=1.0131 pd=3.73 as=1.0131 ps=3.73 w=3.07 l=5.49
X8 GND.t176 CS_BIAS.t34 VOUT.t27 GND.t175 sky130_fd_pr__nfet_01v8 ad=1.2309 pd=4.39 as=1.2309 ps=4.39 w=3.73 l=5.83
X9 VOUT.t52 a_n24758_8502.t21 VDD.t154 VDD.t118 sky130_fd_pr__pfet_01v8 ad=2.2104 pd=7.58 as=1.0131 ps=3.73 w=3.07 l=5.49
X10 GND.t148 GND.t145 GND.t147 GND.t146 sky130_fd_pr__nfet_01v8 ad=1.8072 pd=6.46 as=0 ps=0 w=2.51 l=2.32
X11 GND.t177 CS_BIAS.t35 VOUT.t28 GND.t175 sky130_fd_pr__nfet_01v8 ad=1.2309 pd=4.39 as=1.2309 ps=4.39 w=3.73 l=5.83
X12 GND.t144 GND.t142 GND.t143 GND.t46 sky130_fd_pr__nfet_01v8 ad=2.6856 pd=8.9 as=0 ps=0 w=3.73 l=5.83
X13 VDD.t68 VDD.t66 VDD.t67 VDD.t63 sky130_fd_pr__pfet_01v8 ad=2.7576 pd=9.1 as=0 ps=0 w=3.83 l=5.98
X14 VOUT.t97 CS_BIAS.t36 GND.t222 GND.t4 sky130_fd_pr__nfet_01v8 ad=1.2309 pd=4.39 as=1.2309 ps=4.39 w=3.73 l=5.83
X15 VOUT.t98 CS_BIAS.t37 GND.t223 GND.t4 sky130_fd_pr__nfet_01v8 ad=1.2309 pd=4.39 as=1.2309 ps=4.39 w=3.73 l=5.83
X16 a_n24758_8502.t12 a_n11922_9718.t24 a_n6268_8041.t14 VDD.t91 sky130_fd_pr__pfet_01v8 ad=2.7576 pd=9.1 as=1.2639 ps=4.49 w=3.83 l=5.98
X17 VDD.t153 a_n24758_8502.t22 VOUT.t51 VDD.t126 sky130_fd_pr__pfet_01v8 ad=1.0131 pd=3.73 as=1.0131 ps=3.73 w=3.07 l=5.49
X18 a_n24758_8502.t10 VN.t4 a_n5140_n467.t24 GND.t199 sky130_fd_pr__nfet_01v8 ad=1.9668 pd=6.62 as=1.9668 ps=6.62 w=5.96 l=3.44
X19 a_n24758_8502.t0 VN.t5 a_n5140_n467.t23 GND.t11 sky130_fd_pr__nfet_01v8 ad=1.9668 pd=6.62 as=1.9668 ps=6.62 w=5.96 l=3.44
X20 VOUT.t50 a_n24758_8502.t23 VDD.t152 VDD.t104 sky130_fd_pr__pfet_01v8 ad=1.0131 pd=3.73 as=2.2104 ps=7.58 w=3.07 l=5.49
X21 VOUT.t100 CS_BIAS.t38 GND.t227 GND.t159 sky130_fd_pr__nfet_01v8 ad=1.2309 pd=4.39 as=1.2309 ps=4.39 w=3.73 l=5.83
X22 VDD.t151 a_n24758_8502.t24 VOUT.t86 VDD.t141 sky130_fd_pr__pfet_01v8 ad=1.0131 pd=3.73 as=1.0131 ps=3.73 w=3.07 l=5.49
X23 VDD.t150 a_n24758_8502.t25 VOUT.t85 VDD.t110 sky130_fd_pr__pfet_01v8 ad=1.0131 pd=3.73 as=1.0131 ps=3.73 w=3.07 l=5.49
X24 GND.t228 CS_BIAS.t39 VOUT.t101 GND.t17 sky130_fd_pr__nfet_01v8 ad=1.2309 pd=4.39 as=1.2309 ps=4.39 w=3.73 l=5.83
X25 VOUT.t15 CS_BIAS.t40 GND.t160 GND.t159 sky130_fd_pr__nfet_01v8 ad=1.2309 pd=4.39 as=1.2309 ps=4.39 w=3.73 l=5.83
X26 VOUT.t16 CS_BIAS.t41 GND.t161 GND.t22 sky130_fd_pr__nfet_01v8 ad=1.2309 pd=4.39 as=2.6856 ps=8.9 w=3.73 l=5.83
X27 VOUT.t18 CS_BIAS.t42 GND.t163 GND.t22 sky130_fd_pr__nfet_01v8 ad=1.2309 pd=4.39 as=2.6856 ps=8.9 w=3.73 l=5.83
X28 VOUT.t84 a_n24758_8502.t26 VDD.t149 VDD.t118 sky130_fd_pr__pfet_01v8 ad=2.2104 pd=7.58 as=1.0131 ps=3.73 w=3.07 l=5.49
X29 a_n12066_9915.t7 a_n11922_9718.t25 VDD.t83 VDD.t82 sky130_fd_pr__pfet_01v8 ad=1.2639 pd=4.49 as=1.2639 ps=4.49 w=3.83 l=5.98
X30 VDD.t75 a_n11922_9718.t26 a_n6268_8041.t8 VDD.t74 sky130_fd_pr__pfet_01v8 ad=1.2639 pd=4.49 as=1.2639 ps=4.49 w=3.83 l=5.98
X31 VDD.t65 VDD.t62 VDD.t64 VDD.t63 sky130_fd_pr__pfet_01v8 ad=2.7576 pd=9.1 as=0 ps=0 w=3.83 l=5.98
X32 GND.t164 CS_BIAS.t43 VOUT.t19 GND.t17 sky130_fd_pr__nfet_01v8 ad=1.2309 pd=4.39 as=1.2309 ps=4.39 w=3.73 l=5.83
X33 VDD.t148 a_n24758_8502.t27 VOUT.t83 VDD.t126 sky130_fd_pr__pfet_01v8 ad=1.0131 pd=3.73 as=1.0131 ps=3.73 w=3.07 l=5.49
X34 GND.t141 GND.t139 GND.t140 GND.t130 sky130_fd_pr__nfet_01v8 ad=4.2912 pd=13.36 as=0 ps=0 w=5.96 l=3.44
X35 a_n11922_9718.t13 a_n11922_9718.t12 a_n12066_9915.t13 VDD.t72 sky130_fd_pr__pfet_01v8 ad=1.2639 pd=4.49 as=1.2639 ps=4.49 w=3.83 l=5.98
X36 VOUT.t82 a_n24758_8502.t28 VDD.t147 VDD.t128 sky130_fd_pr__pfet_01v8 ad=1.0131 pd=3.73 as=1.0131 ps=3.73 w=3.07 l=5.49
X37 GND.t138 GND.t136 GND.t137 GND.t46 sky130_fd_pr__nfet_01v8 ad=2.6856 pd=8.9 as=0 ps=0 w=3.73 l=5.83
X38 VOUT.t91 CS_BIAS.t44 GND.t215 GND.t25 sky130_fd_pr__nfet_01v8 ad=1.2309 pd=4.39 as=1.2309 ps=4.39 w=3.73 l=5.83
X39 VOUT.t92 CS_BIAS.t45 GND.t216 GND.t27 sky130_fd_pr__nfet_01v8 ad=1.2309 pd=4.39 as=1.2309 ps=4.39 w=3.73 l=5.83
X40 VOUT.t7 CS_BIAS.t46 GND.t26 GND.t25 sky130_fd_pr__nfet_01v8 ad=1.2309 pd=4.39 as=1.2309 ps=4.39 w=3.73 l=5.83
X41 VOUT.t81 a_n24758_8502.t29 VDD.t146 VDD.t107 sky130_fd_pr__pfet_01v8 ad=1.0131 pd=3.73 as=1.0131 ps=3.73 w=3.07 l=5.49
X42 VOUT.t80 a_n24758_8502.t30 VDD.t145 VDD.t128 sky130_fd_pr__pfet_01v8 ad=1.0131 pd=3.73 as=1.0131 ps=3.73 w=3.07 l=5.49
X43 a_n11922_9718.t10 VP.t4 a_n5140_n467.t11 GND.t11 sky130_fd_pr__nfet_01v8 ad=1.9668 pd=6.62 as=1.9668 ps=6.62 w=5.96 l=3.44
X44 a_n11922_9718.t23 a_n11922_9718.t22 a_n12066_9915.t12 VDD.t2 sky130_fd_pr__pfet_01v8 ad=1.2639 pd=4.49 as=1.2639 ps=4.49 w=3.83 l=5.98
X45 GND.t135 GND.t133 GND.t134 GND.t74 sky130_fd_pr__nfet_01v8 ad=2.6856 pd=8.9 as=0 ps=0 w=3.73 l=5.83
X46 a_n24758_8502.t11 VN.t6 a_n5140_n467.t22 GND.t168 sky130_fd_pr__nfet_01v8 ad=1.9668 pd=6.62 as=4.2912 ps=13.36 w=5.96 l=3.44
X47 VOUT.t8 CS_BIAS.t47 GND.t28 GND.t27 sky130_fd_pr__nfet_01v8 ad=1.2309 pd=4.39 as=1.2309 ps=4.39 w=3.73 l=5.83
X48 GND.t42 CS_BIAS.t48 VOUT.t12 GND.t41 sky130_fd_pr__nfet_01v8 ad=1.2309 pd=4.39 as=1.2309 ps=4.39 w=3.73 l=5.83
X49 a_n6268_8041.t7 a_n11922_9718.t27 VDD.t95 VDD.t94 sky130_fd_pr__pfet_01v8 ad=2.7576 pd=9.1 as=1.2639 ps=4.49 w=3.83 l=5.98
X50 GND.t43 CS_BIAS.t49 VOUT.t13 GND.t29 sky130_fd_pr__nfet_01v8 ad=1.2309 pd=4.39 as=1.2309 ps=4.39 w=3.73 l=5.83
X51 a_n5140_n467.t21 VN.t7 a_n24758_8502.t6 GND.t10 sky130_fd_pr__nfet_01v8 ad=4.2912 pd=13.36 as=1.9668 ps=6.62 w=5.96 l=3.44
X52 GND.t132 GND.t129 GND.t131 GND.t130 sky130_fd_pr__nfet_01v8 ad=4.2912 pd=13.36 as=0 ps=0 w=5.96 l=3.44
X53 GND.t183 CS_BIAS.t50 VOUT.t32 GND.t29 sky130_fd_pr__nfet_01v8 ad=1.2309 pd=4.39 as=1.2309 ps=4.39 w=3.73 l=5.83
X54 DIFFPAIR_BIAS.t7 DIFFPAIR_BIAS.t6 GND.t198 GND.t197 sky130_fd_pr__nfet_01v8 ad=1.8072 pd=6.46 as=1.8072 ps=6.46 w=2.51 l=2.32
X55 GND.t224 CS_BIAS.t30 CS_BIAS.t31 GND.t157 sky130_fd_pr__nfet_01v8 ad=1.2309 pd=4.39 as=1.2309 ps=4.39 w=3.73 l=5.83
X56 CS_BIAS.t29 CS_BIAS.t28 GND.t194 GND.t22 sky130_fd_pr__nfet_01v8 ad=1.2309 pd=4.39 as=2.6856 ps=8.9 w=3.73 l=5.83
X57 VOUT.t33 CS_BIAS.t51 GND.t184 GND.t20 sky130_fd_pr__nfet_01v8 ad=1.2309 pd=4.39 as=2.6856 ps=8.9 w=3.73 l=5.83
X58 VOUT.t106 a_n6268_8041.t0 sky130_fd_pr__cap_mim_m3_1 l=5.65 w=9.9
X59 VOUT.t25 CS_BIAS.t52 GND.t173 GND.t20 sky130_fd_pr__nfet_01v8 ad=1.2309 pd=4.39 as=2.6856 ps=8.9 w=3.73 l=5.83
X60 VOUT.t79 a_n24758_8502.t31 VDD.t144 VDD.t112 sky130_fd_pr__pfet_01v8 ad=1.0131 pd=3.73 as=2.2104 ps=7.58 w=3.07 l=5.49
X61 CS_BIAS.t27 CS_BIAS.t26 GND.t178 GND.t0 sky130_fd_pr__nfet_01v8 ad=1.2309 pd=4.39 as=1.2309 ps=4.39 w=3.73 l=5.83
X62 CS_BIAS.t25 CS_BIAS.t24 GND.t233 GND.t38 sky130_fd_pr__nfet_01v8 ad=1.2309 pd=4.39 as=1.2309 ps=4.39 w=3.73 l=5.83
X63 GND.t174 CS_BIAS.t53 VOUT.t26 GND.t41 sky130_fd_pr__nfet_01v8 ad=1.2309 pd=4.39 as=1.2309 ps=4.39 w=3.73 l=5.83
X64 GND.t128 GND.t126 GND.t127 GND.t70 sky130_fd_pr__nfet_01v8 ad=2.6856 pd=8.9 as=0 ps=0 w=3.73 l=5.83
X65 a_n11922_9718.t8 VP.t5 a_n5140_n467.t10 GND.t168 sky130_fd_pr__nfet_01v8 ad=1.9668 pd=6.62 as=4.2912 ps=13.36 w=5.96 l=3.44
X66 a_n13678_9915# a_n13678_9915# a_n13678_9915# VDD.t80 sky130_fd_pr__pfet_01v8 ad=2.7576 pd=9.1 as=5.5152 ps=18.2 w=3.83 l=5.98
X67 VOUT.t107 a_n6268_8041.t0 sky130_fd_pr__cap_mim_m3_1 l=5.65 w=9.9
X68 GND.t125 GND.t123 GND.t124 GND.t70 sky130_fd_pr__nfet_01v8 ad=2.6856 pd=8.9 as=0 ps=0 w=3.73 l=5.83
X69 VDD.t163 a_n11922_9718.t28 a_n12066_9915.t6 VDD.t162 sky130_fd_pr__pfet_01v8 ad=1.2639 pd=4.49 as=2.7576 ps=9.1 w=3.83 l=5.98
X70 VDD.t99 a_n11922_9718.t29 a_n12066_9915.t5 VDD.t98 sky130_fd_pr__pfet_01v8 ad=1.2639 pd=4.49 as=1.2639 ps=4.49 w=3.83 l=5.98
X71 VDD.t61 VDD.t59 VDD.t60 VDD.t33 sky130_fd_pr__pfet_01v8 ad=2.2104 pd=7.58 as=0 ps=0 w=3.07 l=5.49
X72 a_n5140_n467.t9 VP.t6 a_n11922_9718.t7 GND.t10 sky130_fd_pr__nfet_01v8 ad=4.2912 pd=13.36 as=1.9668 ps=6.62 w=5.96 l=3.44
X73 VDD.t143 a_n24758_8502.t32 VOUT.t56 VDD.t141 sky130_fd_pr__pfet_01v8 ad=1.0131 pd=3.73 as=1.0131 ps=3.73 w=3.07 l=5.49
X74 VDD.t58 VDD.t56 VDD.t57 VDD.t33 sky130_fd_pr__pfet_01v8 ad=2.2104 pd=7.58 as=0 ps=0 w=3.07 l=5.49
X75 VDD.t55 VDD.t53 VDD.t54 VDD.t29 sky130_fd_pr__pfet_01v8 ad=2.2104 pd=7.58 as=0 ps=0 w=3.07 l=5.49
X76 GND.t122 GND.t120 GND.t121 GND.t54 sky130_fd_pr__nfet_01v8 ad=2.6856 pd=8.9 as=0 ps=0 w=3.73 l=5.83
X77 VDD.t86 a_n11922_9718.t30 a_n6268_8041.t6 VDD.t85 sky130_fd_pr__pfet_01v8 ad=1.2639 pd=4.49 as=2.7576 ps=9.1 w=3.83 l=5.98
X78 a_n5140_n467.t8 VP.t7 a_n11922_9718.t5 GND.t15 sky130_fd_pr__nfet_01v8 ad=1.9668 pd=6.62 as=1.9668 ps=6.62 w=5.96 l=3.44
X79 VDD.t142 a_n24758_8502.t33 VOUT.t55 VDD.t141 sky130_fd_pr__pfet_01v8 ad=1.0131 pd=3.73 as=1.0131 ps=3.73 w=3.07 l=5.49
X80 GND.t203 CS_BIAS.t54 VOUT.t43 GND.t157 sky130_fd_pr__nfet_01v8 ad=1.2309 pd=4.39 as=1.2309 ps=4.39 w=3.73 l=5.83
X81 GND.t204 CS_BIAS.t55 VOUT.t44 GND.t157 sky130_fd_pr__nfet_01v8 ad=1.2309 pd=4.39 as=1.2309 ps=4.39 w=3.73 l=5.83
X82 VDD.t52 VDD.t50 VDD.t51 VDD.t29 sky130_fd_pr__pfet_01v8 ad=2.2104 pd=7.58 as=0 ps=0 w=3.07 l=5.49
X83 VDD.t49 VDD.t47 VDD.t48 VDD.t40 sky130_fd_pr__pfet_01v8 ad=2.7576 pd=9.1 as=0 ps=0 w=3.83 l=5.98
X84 GND.t119 GND.t117 GND.t118 GND.t54 sky130_fd_pr__nfet_01v8 ad=2.6856 pd=8.9 as=0 ps=0 w=3.73 l=5.83
X85 GND.t116 GND.t113 GND.t115 GND.t114 sky130_fd_pr__nfet_01v8 ad=1.8072 pd=6.46 as=0 ps=0 w=2.51 l=2.32
X86 VDD.t97 a_n11922_9718.t31 a_n6268_8041.t5 VDD.t96 sky130_fd_pr__pfet_01v8 ad=1.2639 pd=4.49 as=1.2639 ps=4.49 w=3.83 l=5.98
X87 VDD.t140 a_n24758_8502.t34 VOUT.t54 VDD.t138 sky130_fd_pr__pfet_01v8 ad=1.0131 pd=3.73 as=1.0131 ps=3.73 w=3.07 l=5.49
X88 a_n12066_9915.t4 a_n11922_9718.t32 VDD.t77 VDD.t76 sky130_fd_pr__pfet_01v8 ad=2.7576 pd=9.1 as=1.2639 ps=4.49 w=3.83 l=5.98
X89 VDD.t161 a_n11922_9718.t33 a_n6268_8041.t4 VDD.t160 sky130_fd_pr__pfet_01v8 ad=1.2639 pd=4.49 as=2.7576 ps=9.1 w=3.83 l=5.98
X90 a_12194_9915# a_12194_9915# a_12194_9915# VDD.t73 sky130_fd_pr__pfet_01v8 ad=2.7576 pd=9.1 as=5.5152 ps=18.2 w=3.83 l=5.98
X91 VN.t2 GND.t110 GND.t112 GND.t111 sky130_fd_pr__nfet_01v8 ad=0.39 pd=2.78 as=0.165 ps=1.33 w=1 l=0.5
X92 VDD.t46 VDD.t43 VDD.t45 VDD.t44 sky130_fd_pr__pfet_01v8 ad=2.7576 pd=9.1 as=0 ps=0 w=3.83 l=5.98
X93 GND.t192 CS_BIAS.t56 VOUT.t38 GND.t191 sky130_fd_pr__nfet_01v8 ad=1.2309 pd=4.39 as=1.2309 ps=4.39 w=3.73 l=5.83
X94 VDD.t139 a_n24758_8502.t35 VOUT.t73 VDD.t138 sky130_fd_pr__pfet_01v8 ad=1.0131 pd=3.73 as=1.0131 ps=3.73 w=3.07 l=5.49
X95 a_n6268_8041.t3 a_n11922_9718.t34 VDD.t79 VDD.t78 sky130_fd_pr__pfet_01v8 ad=2.7576 pd=9.1 as=1.2639 ps=4.49 w=3.83 l=5.98
X96 VP.t2 GND.t107 GND.t109 GND.t108 sky130_fd_pr__nfet_01v8 ad=0.165 pd=1.33 as=0.165 ps=1.33 w=1 l=0.5
X97 GND.t193 CS_BIAS.t57 VOUT.t39 GND.t157 sky130_fd_pr__nfet_01v8 ad=1.2309 pd=4.39 as=1.2309 ps=4.39 w=3.73 l=5.83
X98 GND.t106 GND.t104 GND.t105 GND.t70 sky130_fd_pr__nfet_01v8 ad=2.6856 pd=8.9 as=0 ps=0 w=3.73 l=5.83
X99 VOUT.t5 CS_BIAS.t58 GND.t23 GND.t22 sky130_fd_pr__nfet_01v8 ad=1.2309 pd=4.39 as=2.6856 ps=8.9 w=3.73 l=5.83
X100 a_n5140_n467.t20 VN.t8 a_n24758_8502.t2 GND.t15 sky130_fd_pr__nfet_01v8 ad=1.9668 pd=6.62 as=1.9668 ps=6.62 w=5.96 l=3.44
X101 GND.t225 CS_BIAS.t22 CS_BIAS.t23 GND.t171 sky130_fd_pr__nfet_01v8 ad=2.6856 pd=8.9 as=1.2309 ps=4.39 w=3.73 l=5.83
X102 VOUT.t6 CS_BIAS.t59 GND.t24 GND.t0 sky130_fd_pr__nfet_01v8 ad=1.2309 pd=4.39 as=1.2309 ps=4.39 w=3.73 l=5.83
X103 VOUT.t0 CS_BIAS.t60 GND.t1 GND.t0 sky130_fd_pr__nfet_01v8 ad=1.2309 pd=4.39 as=1.2309 ps=4.39 w=3.73 l=5.83
X104 GND.t195 CS_BIAS.t20 CS_BIAS.t21 GND.t175 sky130_fd_pr__nfet_01v8 ad=1.2309 pd=4.39 as=1.2309 ps=4.39 w=3.73 l=5.83
X105 GND.t3 CS_BIAS.t61 VOUT.t1 GND.t2 sky130_fd_pr__nfet_01v8 ad=2.6856 pd=8.9 as=1.2309 ps=4.39 w=3.73 l=5.83
X106 VOUT.t36 CS_BIAS.t62 GND.t189 GND.t38 sky130_fd_pr__nfet_01v8 ad=1.2309 pd=4.39 as=1.2309 ps=4.39 w=3.73 l=5.83
X107 VOUT.t37 CS_BIAS.t63 GND.t190 GND.t0 sky130_fd_pr__nfet_01v8 ad=1.2309 pd=4.39 as=1.2309 ps=4.39 w=3.73 l=5.83
X108 GND.t213 CS_BIAS.t64 VOUT.t89 GND.t171 sky130_fd_pr__nfet_01v8 ad=2.6856 pd=8.9 as=1.2309 ps=4.39 w=3.73 l=5.83
X109 DIFFPAIR_BIAS.t5 DIFFPAIR_BIAS.t4 GND.t207 GND.t206 sky130_fd_pr__nfet_01v8 ad=1.8072 pd=6.46 as=1.8072 ps=6.46 w=2.51 l=2.32
X110 GND.t214 CS_BIAS.t65 VOUT.t90 GND.t171 sky130_fd_pr__nfet_01v8 ad=2.6856 pd=8.9 as=1.2309 ps=4.39 w=3.73 l=5.83
X111 VDD.t42 VDD.t39 VDD.t41 VDD.t40 sky130_fd_pr__pfet_01v8 ad=2.7576 pd=9.1 as=0 ps=0 w=3.83 l=5.98
X112 GND.t103 GND.t101 GND.t102 GND.t74 sky130_fd_pr__nfet_01v8 ad=2.6856 pd=8.9 as=0 ps=0 w=3.73 l=5.83
X113 VOUT.t72 a_n24758_8502.t36 VDD.t137 VDD.t114 sky130_fd_pr__pfet_01v8 ad=1.0131 pd=3.73 as=1.0131 ps=3.73 w=3.07 l=5.49
X114 VOUT.t10 CS_BIAS.t66 GND.t39 GND.t38 sky130_fd_pr__nfet_01v8 ad=1.2309 pd=4.39 as=1.2309 ps=4.39 w=3.73 l=5.83
X115 VOUT.t71 a_n24758_8502.t37 VDD.t136 VDD.t131 sky130_fd_pr__pfet_01v8 ad=1.0131 pd=3.73 as=1.0131 ps=3.73 w=3.07 l=5.49
X116 VOUT.t11 CS_BIAS.t67 GND.t40 GND.t38 sky130_fd_pr__nfet_01v8 ad=1.2309 pd=4.39 as=1.2309 ps=4.39 w=3.73 l=5.83
X117 DIFFPAIR_BIAS.t3 DIFFPAIR_BIAS.t2 GND.t7 GND.t6 sky130_fd_pr__nfet_01v8 ad=1.8072 pd=6.46 as=1.8072 ps=6.46 w=2.51 l=2.32
X118 CS_BIAS.t19 CS_BIAS.t18 GND.t5 GND.t4 sky130_fd_pr__nfet_01v8 ad=1.2309 pd=4.39 as=1.2309 ps=4.39 w=3.73 l=5.83
X119 VDD.t135 a_n24758_8502.t38 VOUT.t49 VDD.t122 sky130_fd_pr__pfet_01v8 ad=1.0131 pd=3.73 as=1.0131 ps=3.73 w=3.07 l=5.49
X120 a_n12066_9915.t11 a_n11922_9718.t14 a_n11922_9718.t15 VDD.t91 sky130_fd_pr__pfet_01v8 ad=2.7576 pd=9.1 as=1.2639 ps=4.49 w=3.83 l=5.98
X121 VOUT.t48 a_n24758_8502.t39 VDD.t134 VDD.t131 sky130_fd_pr__pfet_01v8 ad=1.0131 pd=3.73 as=1.0131 ps=3.73 w=3.07 l=5.49
X122 GND.t100 GND.t98 GND.t99 GND.t46 sky130_fd_pr__nfet_01v8 ad=2.6856 pd=8.9 as=0 ps=0 w=3.73 l=5.83
X123 VDD.t38 VDD.t36 VDD.t37 VDD.t22 sky130_fd_pr__pfet_01v8 ad=2.2104 pd=7.58 as=0 ps=0 w=3.07 l=5.49
X124 a_n6268_8041.t2 a_n11922_9718.t35 VDD.t90 VDD.t89 sky130_fd_pr__pfet_01v8 ad=1.2639 pd=4.49 as=1.2639 ps=4.49 w=3.83 l=5.98
X125 DIFFPAIR_BIAS.t1 DIFFPAIR_BIAS.t0 GND.t9 GND.t8 sky130_fd_pr__nfet_01v8 ad=1.8072 pd=6.46 as=1.8072 ps=6.46 w=2.51 l=2.32
X126 GND.t97 GND.t95 GND.t96 GND.t46 sky130_fd_pr__nfet_01v8 ad=2.6856 pd=8.9 as=0 ps=0 w=3.73 l=5.83
X127 VOUT.t47 a_n24758_8502.t40 VDD.t133 VDD.t114 sky130_fd_pr__pfet_01v8 ad=1.0131 pd=3.73 as=1.0131 ps=3.73 w=3.07 l=5.49
X128 GND.t94 GND.t92 GND.t93 GND.t54 sky130_fd_pr__nfet_01v8 ad=2.6856 pd=8.9 as=0 ps=0 w=3.73 l=5.83
X129 GND.t181 CS_BIAS.t68 VOUT.t30 GND.t175 sky130_fd_pr__nfet_01v8 ad=1.2309 pd=4.39 as=1.2309 ps=4.39 w=3.73 l=5.83
X130 a_n11922_9718.t4 VP.t8 a_n5140_n467.t7 GND.t14 sky130_fd_pr__nfet_01v8 ad=1.9668 pd=6.62 as=1.9668 ps=6.62 w=5.96 l=3.44
X131 VN.t1 GND.t89 GND.t91 GND.t90 sky130_fd_pr__nfet_01v8 ad=0.165 pd=1.33 as=0.165 ps=1.33 w=1 l=0.5
X132 VOUT.t31 CS_BIAS.t69 GND.t182 GND.t4 sky130_fd_pr__nfet_01v8 ad=1.2309 pd=4.39 as=1.2309 ps=4.39 w=3.73 l=5.83
X133 a_n24758_8502.t17 a_n11922_9718.t36 a_n6268_8041.t13 VDD.t84 sky130_fd_pr__pfet_01v8 ad=2.7576 pd=9.1 as=1.2639 ps=4.49 w=3.83 l=5.98
X134 a_n5140_n467.t12 DIFFPAIR_BIAS.t8 GND.t13 GND.t12 sky130_fd_pr__nfet_01v8 ad=1.8072 pd=6.46 as=1.8072 ps=6.46 w=2.51 l=2.32
X135 GND.t30 CS_BIAS.t16 CS_BIAS.t17 GND.t29 sky130_fd_pr__nfet_01v8 ad=1.2309 pd=4.39 as=1.2309 ps=4.39 w=3.73 l=5.83
X136 VOUT.t46 a_n24758_8502.t41 VDD.t132 VDD.t131 sky130_fd_pr__pfet_01v8 ad=1.0131 pd=3.73 as=1.0131 ps=3.73 w=3.07 l=5.49
X137 VP.t1 GND.t86 GND.t88 GND.t87 sky130_fd_pr__nfet_01v8 ad=0.39 pd=2.78 as=0.165 ps=1.33 w=1 l=0.5
X138 VOUT.t65 a_n24758_8502.t42 VDD.t130 VDD.t120 sky130_fd_pr__pfet_01v8 ad=2.2104 pd=7.58 as=1.0131 ps=3.73 w=3.07 l=5.49
X139 VOUT.t41 CS_BIAS.t70 GND.t201 GND.t159 sky130_fd_pr__nfet_01v8 ad=1.2309 pd=4.39 as=1.2309 ps=4.39 w=3.73 l=5.83
X140 VOUT.t42 CS_BIAS.t71 GND.t202 GND.t22 sky130_fd_pr__nfet_01v8 ad=1.2309 pd=4.39 as=2.6856 ps=8.9 w=3.73 l=5.83
X141 VOUT.t64 a_n24758_8502.t43 VDD.t129 VDD.t128 sky130_fd_pr__pfet_01v8 ad=1.0131 pd=3.73 as=1.0131 ps=3.73 w=3.07 l=5.49
X142 VDD.t127 a_n24758_8502.t44 VOUT.t63 VDD.t126 sky130_fd_pr__pfet_01v8 ad=1.0131 pd=3.73 as=1.0131 ps=3.73 w=3.07 l=5.49
X143 VDD.t125 a_n24758_8502.t45 VOUT.t62 VDD.t122 sky130_fd_pr__pfet_01v8 ad=1.0131 pd=3.73 as=1.0131 ps=3.73 w=3.07 l=5.49
X144 GND.t220 CS_BIAS.t72 VOUT.t95 GND.t17 sky130_fd_pr__nfet_01v8 ad=1.2309 pd=4.39 as=1.2309 ps=4.39 w=3.73 l=5.83
X145 a_n6268_8041.t1 a_n11922_9718.t37 VDD.t101 VDD.t100 sky130_fd_pr__pfet_01v8 ad=1.2639 pd=4.49 as=1.2639 ps=4.49 w=3.83 l=5.98
X146 a_n5140_n467.t19 VN.t9 a_n24758_8502.t16 GND.t32 sky130_fd_pr__nfet_01v8 ad=1.9668 pd=6.62 as=1.9668 ps=6.62 w=5.96 l=3.44
X147 GND.t196 CS_BIAS.t14 CS_BIAS.t15 GND.t191 sky130_fd_pr__nfet_01v8 ad=1.2309 pd=4.39 as=1.2309 ps=4.39 w=3.73 l=5.83
X148 VOUT.t96 CS_BIAS.t73 GND.t221 GND.t25 sky130_fd_pr__nfet_01v8 ad=1.2309 pd=4.39 as=1.2309 ps=4.39 w=3.73 l=5.83
X149 GND.t205 CS_BIAS.t12 CS_BIAS.t13 GND.t2 sky130_fd_pr__nfet_01v8 ad=2.6856 pd=8.9 as=1.2309 ps=4.39 w=3.73 l=5.83
X150 VOUT.t102 CS_BIAS.t74 GND.t229 GND.t25 sky130_fd_pr__nfet_01v8 ad=1.2309 pd=4.39 as=1.2309 ps=4.39 w=3.73 l=5.83
X151 VDD.t93 a_n11922_9718.t38 a_n12066_9915.t3 VDD.t92 sky130_fd_pr__pfet_01v8 ad=1.2639 pd=4.49 as=2.7576 ps=9.1 w=3.83 l=5.98
X152 VOUT.t61 a_n24758_8502.t46 VDD.t124 VDD.t120 sky130_fd_pr__pfet_01v8 ad=2.2104 pd=7.58 as=1.0131 ps=3.73 w=3.07 l=5.49
X153 VDD.t35 VDD.t32 VDD.t34 VDD.t33 sky130_fd_pr__pfet_01v8 ad=2.2104 pd=7.58 as=0 ps=0 w=3.07 l=5.49
X154 VDD.t123 a_n24758_8502.t47 VOUT.t60 VDD.t122 sky130_fd_pr__pfet_01v8 ad=1.0131 pd=3.73 as=1.0131 ps=3.73 w=3.07 l=5.49
X155 a_n12066_9915.t10 a_n11922_9718.t16 a_n11922_9718.t17 VDD.t3 sky130_fd_pr__pfet_01v8 ad=1.2639 pd=4.49 as=2.7576 ps=9.1 w=3.83 l=5.98
X156 a_n24758_8502.t1 VN.t10 a_n5140_n467.t18 GND.t14 sky130_fd_pr__nfet_01v8 ad=1.9668 pd=6.62 as=1.9668 ps=6.62 w=5.96 l=3.44
X157 VOUT.t108 a_n6268_8041.t0 sky130_fd_pr__cap_mim_m3_1 l=5.65 w=9.9
X158 CS_BIAS.t11 CS_BIAS.t10 GND.t179 GND.t159 sky130_fd_pr__nfet_01v8 ad=1.2309 pd=4.39 as=1.2309 ps=4.39 w=3.73 l=5.83
X159 GND.t85 GND.t83 GND.t84 GND.t70 sky130_fd_pr__nfet_01v8 ad=2.6856 pd=8.9 as=0 ps=0 w=3.73 l=5.83
X160 a_n24758_8502.t4 VN.t11 a_n5140_n467.t17 GND.t155 sky130_fd_pr__nfet_01v8 ad=1.9668 pd=6.62 as=1.9668 ps=6.62 w=5.96 l=3.44
X161 VOUT.t67 a_n24758_8502.t48 VDD.t121 VDD.t120 sky130_fd_pr__pfet_01v8 ad=2.2104 pd=7.58 as=1.0131 ps=3.73 w=3.07 l=5.49
X162 GND.t82 GND.t80 GND.t81 GND.t74 sky130_fd_pr__nfet_01v8 ad=2.6856 pd=8.9 as=0 ps=0 w=3.73 l=5.83
X163 VOUT.t103 CS_BIAS.t75 GND.t230 GND.t27 sky130_fd_pr__nfet_01v8 ad=1.2309 pd=4.39 as=1.2309 ps=4.39 w=3.73 l=5.83
X164 GND.t79 GND.t77 GND.t78 GND.t74 sky130_fd_pr__nfet_01v8 ad=2.6856 pd=8.9 as=0 ps=0 w=3.73 l=5.83
X165 VOUT.t66 a_n24758_8502.t49 VDD.t119 VDD.t118 sky130_fd_pr__pfet_01v8 ad=2.2104 pd=7.58 as=1.0131 ps=3.73 w=3.07 l=5.49
X166 VDD.t117 a_n24758_8502.t50 VOUT.t59 VDD.t102 sky130_fd_pr__pfet_01v8 ad=1.0131 pd=3.73 as=1.0131 ps=3.73 w=3.07 l=5.49
X167 VOUT.t23 CS_BIAS.t76 GND.t170 GND.t27 sky130_fd_pr__nfet_01v8 ad=1.2309 pd=4.39 as=1.2309 ps=4.39 w=3.73 l=5.83
X168 GND.t172 CS_BIAS.t77 VOUT.t24 GND.t171 sky130_fd_pr__nfet_01v8 ad=2.6856 pd=8.9 as=1.2309 ps=4.39 w=3.73 l=5.83
X169 GND.t187 CS_BIAS.t78 VOUT.t34 GND.t175 sky130_fd_pr__nfet_01v8 ad=1.2309 pd=4.39 as=1.2309 ps=4.39 w=3.73 l=5.83
X170 a_n5140_n467.t6 VP.t9 a_n11922_9718.t11 GND.t210 sky130_fd_pr__nfet_01v8 ad=4.2912 pd=13.36 as=1.9668 ps=6.62 w=5.96 l=3.44
X171 VDD.t31 VDD.t28 VDD.t30 VDD.t29 sky130_fd_pr__pfet_01v8 ad=2.2104 pd=7.58 as=0 ps=0 w=3.07 l=5.49
X172 VOUT.t109 a_n6268_8041.t0 sky130_fd_pr__cap_mim_m3_1 l=5.65 w=9.9
X173 a_n5140_n467.t5 VP.t10 a_n11922_9718.t9 GND.t32 sky130_fd_pr__nfet_01v8 ad=1.9668 pd=6.62 as=1.9668 ps=6.62 w=5.96 l=3.44
X174 a_n12066_9915.t9 a_n11922_9718.t18 a_n11922_9718.t19 VDD.t84 sky130_fd_pr__pfet_01v8 ad=2.7576 pd=9.1 as=1.2639 ps=4.49 w=3.83 l=5.98
X175 VOUT.t58 a_n24758_8502.t51 VDD.t116 VDD.t112 sky130_fd_pr__pfet_01v8 ad=1.0131 pd=3.73 as=2.2104 ps=7.58 w=3.07 l=5.49
X176 GND.t185 CS_BIAS.t8 CS_BIAS.t9 GND.t17 sky130_fd_pr__nfet_01v8 ad=1.2309 pd=4.39 as=1.2309 ps=4.39 w=3.73 l=5.83
X177 GND.t188 CS_BIAS.t79 VOUT.t35 GND.t29 sky130_fd_pr__nfet_01v8 ad=1.2309 pd=4.39 as=1.2309 ps=4.39 w=3.73 l=5.83
X178 GND.t76 GND.t73 GND.t75 GND.t74 sky130_fd_pr__nfet_01v8 ad=2.6856 pd=8.9 as=0 ps=0 w=3.73 l=5.83
X179 a_n6268_8041.t12 a_n11922_9718.t39 a_n24758_8502.t13 VDD.t2 sky130_fd_pr__pfet_01v8 ad=1.2639 pd=4.49 as=1.2639 ps=4.49 w=3.83 l=5.98
X180 VOUT.t57 a_n24758_8502.t52 VDD.t115 VDD.t114 sky130_fd_pr__pfet_01v8 ad=1.0131 pd=3.73 as=1.0131 ps=3.73 w=3.07 l=5.49
X181 a_n24758_8502.t9 a_n11922_9718.t40 a_n6268_8041.t11 VDD.t81 sky130_fd_pr__pfet_01v8 ad=1.2639 pd=4.49 as=2.7576 ps=9.1 w=3.83 l=5.98
X182 VDD.t27 VDD.t25 VDD.t26 VDD.t22 sky130_fd_pr__pfet_01v8 ad=2.2104 pd=7.58 as=0 ps=0 w=3.07 l=5.49
X183 VOUT.t3 CS_BIAS.t80 GND.t19 GND.t4 sky130_fd_pr__nfet_01v8 ad=1.2309 pd=4.39 as=1.2309 ps=4.39 w=3.73 l=5.83
X184 VOUT.t76 a_n24758_8502.t53 VDD.t113 VDD.t112 sky130_fd_pr__pfet_01v8 ad=1.0131 pd=3.73 as=2.2104 ps=7.58 w=3.07 l=5.49
X185 VOUT.t4 CS_BIAS.t81 GND.t21 GND.t20 sky130_fd_pr__nfet_01v8 ad=1.2309 pd=4.39 as=2.6856 ps=8.9 w=3.73 l=5.83
X186 a_n12066_9915.t2 a_n11922_9718.t41 VDD.t88 VDD.t87 sky130_fd_pr__pfet_01v8 ad=1.2639 pd=4.49 as=1.2639 ps=4.49 w=3.83 l=5.98
X187 CS_BIAS.t7 CS_BIAS.t6 GND.t44 GND.t20 sky130_fd_pr__nfet_01v8 ad=1.2309 pd=4.39 as=2.6856 ps=8.9 w=3.73 l=5.83
X188 a_n5140_n467.t4 VP.t11 a_n11922_9718.t3 GND.t186 sky130_fd_pr__nfet_01v8 ad=1.9668 pd=6.62 as=1.9668 ps=6.62 w=5.96 l=3.44
X189 a_n11922_9718.t0 VP.t12 a_n5140_n467.t3 GND.t155 sky130_fd_pr__nfet_01v8 ad=1.9668 pd=6.62 as=1.9668 ps=6.62 w=5.96 l=3.44
X190 GND.t166 CS_BIAS.t82 VOUT.t20 GND.t41 sky130_fd_pr__nfet_01v8 ad=1.2309 pd=4.39 as=1.2309 ps=4.39 w=3.73 l=5.83
X191 a_n5140_n467.t27 DIFFPAIR_BIAS.t9 GND.t209 GND.t208 sky130_fd_pr__nfet_01v8 ad=1.8072 pd=6.46 as=1.8072 ps=6.46 w=2.51 l=2.32
X192 GND.t167 CS_BIAS.t83 VOUT.t21 GND.t41 sky130_fd_pr__nfet_01v8 ad=1.2309 pd=4.39 as=1.2309 ps=4.39 w=3.73 l=5.83
X193 VDD.t24 VDD.t21 VDD.t23 VDD.t22 sky130_fd_pr__pfet_01v8 ad=2.2104 pd=7.58 as=0 ps=0 w=3.07 l=5.49
X194 VDD.t20 VDD.t18 VDD.t19 VDD.t9 sky130_fd_pr__pfet_01v8 ad=2.2104 pd=7.58 as=0 ps=0 w=3.07 l=5.49
X195 GND.t218 CS_BIAS.t84 VOUT.t93 GND.t29 sky130_fd_pr__nfet_01v8 ad=1.2309 pd=4.39 as=1.2309 ps=4.39 w=3.73 l=5.83
X196 GND.t72 GND.t69 GND.t71 GND.t70 sky130_fd_pr__nfet_01v8 ad=2.6856 pd=8.9 as=0 ps=0 w=3.73 l=5.83
X197 GND.t68 GND.t66 GND.t67 GND.t50 sky130_fd_pr__nfet_01v8 ad=4.2912 pd=13.36 as=0 ps=0 w=5.96 l=3.44
X198 VDD.t17 VDD.t15 VDD.t16 VDD.t5 sky130_fd_pr__pfet_01v8 ad=2.7576 pd=9.1 as=0 ps=0 w=3.83 l=5.98
X199 GND.t65 GND.t63 VN.t0 GND.t64 sky130_fd_pr__nfet_01v8 ad=0.165 pd=1.33 as=0.39 ps=2.78 w=1 l=0.5
X200 a_n5140_n467.t16 VN.t12 a_n24758_8502.t15 GND.t210 sky130_fd_pr__nfet_01v8 ad=4.2912 pd=13.36 as=1.9668 ps=6.62 w=5.96 l=3.44
X201 VDD.t111 a_n24758_8502.t54 VOUT.t75 VDD.t110 sky130_fd_pr__pfet_01v8 ad=1.0131 pd=3.73 as=1.0131 ps=3.73 w=3.07 l=5.49
X202 a_n11922_9718.t6 VP.t13 a_n5140_n467.t2 GND.t156 sky130_fd_pr__nfet_01v8 ad=1.9668 pd=6.62 as=4.2912 ps=13.36 w=5.96 l=3.44
X203 GND.t219 CS_BIAS.t85 VOUT.t94 GND.t2 sky130_fd_pr__nfet_01v8 ad=2.6856 pd=8.9 as=1.2309 ps=4.39 w=3.73 l=5.83
X204 a_n5140_n467.t26 DIFFPAIR_BIAS.t10 GND.t36 GND.t35 sky130_fd_pr__nfet_01v8 ad=1.8072 pd=6.46 as=1.8072 ps=6.46 w=2.51 l=2.32
X205 GND.t226 CS_BIAS.t86 VOUT.t99 GND.t191 sky130_fd_pr__nfet_01v8 ad=1.2309 pd=4.39 as=1.2309 ps=4.39 w=3.73 l=5.83
X206 a_n24758_8502.t14 a_n11922_9718.t42 a_n6268_8041.t10 VDD.t3 sky130_fd_pr__pfet_01v8 ad=1.2639 pd=4.49 as=2.7576 ps=9.1 w=3.83 l=5.98
X207 VOUT.t74 a_n24758_8502.t55 VDD.t109 VDD.t107 sky130_fd_pr__pfet_01v8 ad=1.0131 pd=3.73 as=1.0131 ps=3.73 w=3.07 l=5.49
X208 a_n12066_9915.t1 a_n11922_9718.t43 VDD.t159 VDD.t158 sky130_fd_pr__pfet_01v8 ad=2.7576 pd=9.1 as=1.2639 ps=4.49 w=3.83 l=5.98
X209 a_n5140_n467.t25 DIFFPAIR_BIAS.t11 GND.t34 GND.t33 sky130_fd_pr__nfet_01v8 ad=1.8072 pd=6.46 as=1.8072 ps=6.46 w=2.51 l=2.32
X210 a_n6268_8041.t9 a_n11922_9718.t44 a_n24758_8502.t7 VDD.t72 sky130_fd_pr__pfet_01v8 ad=1.2639 pd=4.49 as=1.2639 ps=4.49 w=3.83 l=5.98
X211 a_n5140_n467.t15 VN.t13 a_n24758_8502.t8 GND.t186 sky130_fd_pr__nfet_01v8 ad=1.9668 pd=6.62 as=1.9668 ps=6.62 w=5.96 l=3.44
X212 a_n5140_n467.t14 VN.t14 a_n24758_8502.t3 GND.t16 sky130_fd_pr__nfet_01v8 ad=1.9668 pd=6.62 as=1.9668 ps=6.62 w=5.96 l=3.44
X213 GND.t62 GND.t60 GND.t61 GND.t54 sky130_fd_pr__nfet_01v8 ad=2.6856 pd=8.9 as=0 ps=0 w=3.73 l=5.83
X214 GND.t158 CS_BIAS.t87 VOUT.t14 GND.t157 sky130_fd_pr__nfet_01v8 ad=1.2309 pd=4.39 as=1.2309 ps=4.39 w=3.73 l=5.83
X215 GND.t59 GND.t57 VP.t0 GND.t58 sky130_fd_pr__nfet_01v8 ad=0.165 pd=1.33 as=0.39 ps=2.78 w=1 l=0.5
X216 GND.t56 GND.t53 GND.t55 GND.t54 sky130_fd_pr__nfet_01v8 ad=2.6856 pd=8.9 as=0 ps=0 w=3.73 l=5.83
X217 VOUT.t17 CS_BIAS.t88 GND.t162 GND.t159 sky130_fd_pr__nfet_01v8 ad=1.2309 pd=4.39 as=1.2309 ps=4.39 w=3.73 l=5.83
X218 VOUT.t70 a_n24758_8502.t56 VDD.t108 VDD.t107 sky130_fd_pr__pfet_01v8 ad=1.0131 pd=3.73 as=1.0131 ps=3.73 w=3.07 l=5.49
X219 VDD.t14 VDD.t12 VDD.t13 VDD.t9 sky130_fd_pr__pfet_01v8 ad=2.2104 pd=7.58 as=0 ps=0 w=3.07 l=5.49
X220 GND.t52 GND.t49 GND.t51 GND.t50 sky130_fd_pr__nfet_01v8 ad=4.2912 pd=13.36 as=0 ps=0 w=5.96 l=3.44
X221 a_n12066_9915.t8 a_n11922_9718.t20 a_n11922_9718.t21 VDD.t81 sky130_fd_pr__pfet_01v8 ad=1.2639 pd=4.49 as=2.7576 ps=9.1 w=3.83 l=5.98
X222 GND.t48 GND.t45 GND.t47 GND.t46 sky130_fd_pr__nfet_01v8 ad=2.6856 pd=8.9 as=0 ps=0 w=3.73 l=5.83
X223 a_n24758_8502.t5 VN.t15 a_n5140_n467.t13 GND.t156 sky130_fd_pr__nfet_01v8 ad=1.9668 pd=6.62 as=4.2912 ps=13.36 w=5.96 l=3.44
X224 CS_BIAS.t5 CS_BIAS.t4 GND.t31 GND.t25 sky130_fd_pr__nfet_01v8 ad=1.2309 pd=4.39 as=1.2309 ps=4.39 w=3.73 l=5.83
X225 CS_BIAS.t3 CS_BIAS.t2 GND.t217 GND.t27 sky130_fd_pr__nfet_01v8 ad=1.2309 pd=4.39 as=1.2309 ps=4.39 w=3.73 l=5.83
X226 VOUT.t69 a_n24758_8502.t57 VDD.t106 VDD.t104 sky130_fd_pr__pfet_01v8 ad=1.0131 pd=3.73 as=2.2104 ps=7.58 w=3.07 l=5.49
X227 GND.t212 CS_BIAS.t89 VOUT.t88 GND.t191 sky130_fd_pr__nfet_01v8 ad=1.2309 pd=4.39 as=1.2309 ps=4.39 w=3.73 l=5.83
X228 GND.t211 CS_BIAS.t90 VOUT.t87 GND.t191 sky130_fd_pr__nfet_01v8 ad=1.2309 pd=4.39 as=1.2309 ps=4.39 w=3.73 l=5.83
X229 VDD.t11 VDD.t8 VDD.t10 VDD.t9 sky130_fd_pr__pfet_01v8 ad=2.2104 pd=7.58 as=0 ps=0 w=3.07 l=5.49
X230 GND.t18 CS_BIAS.t91 VOUT.t2 GND.t17 sky130_fd_pr__nfet_01v8 ad=1.2309 pd=4.39 as=1.2309 ps=4.39 w=3.73 l=5.83
X231 VDD.t7 VDD.t4 VDD.t6 VDD.t5 sky130_fd_pr__pfet_01v8 ad=2.7576 pd=9.1 as=0 ps=0 w=3.83 l=5.98
X232 VOUT.t68 a_n24758_8502.t58 VDD.t105 VDD.t104 sky130_fd_pr__pfet_01v8 ad=1.0131 pd=3.73 as=2.2104 ps=7.58 w=3.07 l=5.49
X233 GND.t165 CS_BIAS.t0 CS_BIAS.t1 GND.t41 sky130_fd_pr__nfet_01v8 ad=1.2309 pd=4.39 as=1.2309 ps=4.39 w=3.73 l=5.83
X234 a_n11922_9718.t1 VP.t14 a_n5140_n467.t1 GND.t199 sky130_fd_pr__nfet_01v8 ad=1.9668 pd=6.62 as=1.9668 ps=6.62 w=5.96 l=3.44
X235 a_n5140_n467.t0 VP.t15 a_n11922_9718.t2 GND.t16 sky130_fd_pr__nfet_01v8 ad=1.9668 pd=6.62 as=1.9668 ps=6.62 w=5.96 l=3.44
X236 VOUT.t9 CS_BIAS.t92 GND.t37 GND.t0 sky130_fd_pr__nfet_01v8 ad=1.2309 pd=4.39 as=1.2309 ps=4.39 w=3.73 l=5.83
X237 GND.t180 CS_BIAS.t93 VOUT.t29 GND.t2 sky130_fd_pr__nfet_01v8 ad=2.6856 pd=8.9 as=1.2309 ps=4.39 w=3.73 l=5.83
X238 VOUT.t22 CS_BIAS.t94 GND.t169 GND.t20 sky130_fd_pr__nfet_01v8 ad=1.2309 pd=4.39 as=2.6856 ps=8.9 w=3.73 l=5.83
X239 VDD.t1 a_n11922_9718.t45 a_n12066_9915.t0 VDD.t0 sky130_fd_pr__pfet_01v8 ad=1.2639 pd=4.49 as=1.2639 ps=4.49 w=3.83 l=5.98
X240 VDD.t103 a_n24758_8502.t59 VOUT.t45 VDD.t102 sky130_fd_pr__pfet_01v8 ad=1.0131 pd=3.73 as=1.0131 ps=3.73 w=3.07 l=5.49
X241 GND.t200 CS_BIAS.t95 VOUT.t40 GND.t2 sky130_fd_pr__nfet_01v8 ad=2.6856 pd=8.9 as=1.2309 ps=4.39 w=3.73 l=5.83
R0 a_n24758_8502.n27 a_n24758_8502.t12 128.156
R1 a_n24758_8502.n25 a_n24758_8502.t17 126.249
R2 a_n24758_8502.n25 a_n24758_8502.n24 111.183
R3 a_n24758_8502.n27 a_n24758_8502.n26 109.275
R4 a_n24758_8502.n23 a_n24758_8502.n31 63.7938
R5 a_n24758_8502.n36 a_n24758_8502.n35 63.7936
R6 a_n24758_8502.n36 a_n24758_8502.n34 63.7936
R7 a_n24758_8502.n37 a_n24758_8502.n36 62.6158
R8 a_n24758_8502.n23 a_n24758_8502.n33 62.6156
R9 a_n24758_8502.n23 a_n24758_8502.n32 62.6156
R10 a_n24758_8502.n10 a_n24758_8502.t42 47.1791
R11 a_n24758_8502.n8 a_n24758_8502.t46 47.1791
R12 a_n24758_8502.n6 a_n24758_8502.t48 47.1791
R13 a_n24758_8502.n0 a_n24758_8502.t57 47.179
R14 a_n24758_8502.n2 a_n24758_8502.t58 47.179
R15 a_n24758_8502.n4 a_n24758_8502.t23 47.179
R16 a_n24758_8502.n28 a_n24758_8502.n25 36.8503
R17 a_n24758_8502.n36 a_n24758_8502.n23 35.5519
R18 a_n24758_8502.n28 a_n24758_8502.n27 26.581
R19 a_n24758_8502.n12 a_n24758_8502.n0 2.10367
R20 a_n24758_8502.n0 a_n24758_8502.n13 0.803298
R21 a_n24758_8502.n0 a_n24758_8502.n1 2.02685
R22 a_n24758_8502.n14 a_n24758_8502.n2 2.10367
R23 a_n24758_8502.n2 a_n24758_8502.n15 0.803298
R24 a_n24758_8502.n2 a_n24758_8502.n3 2.02685
R25 a_n24758_8502.n16 a_n24758_8502.n4 2.10367
R26 a_n24758_8502.n4 a_n24758_8502.n17 0.803298
R27 a_n24758_8502.n4 a_n24758_8502.n5 2.02685
R28 a_n24758_8502.n10 a_n24758_8502.n11 2.89029
R29 a_n24758_8502.n8 a_n24758_8502.n9 2.89029