* NGSPICE file created from diff_pair_sample_0340.ext - technology: sky130A

.subckt diff_pair_sample_0340 VTAIL VN VP B VDD2 VDD1
X0 VDD2.t9 VN.t0 VTAIL.t18 w_n3442_n2302# sky130_fd_pr__pfet_01v8 ad=2.6013 pd=14.12 as=1.10055 ps=7 w=6.67 l=1.73
X1 VDD1.t9 VP.t0 VTAIL.t2 w_n3442_n2302# sky130_fd_pr__pfet_01v8 ad=1.10055 pd=7 as=1.10055 ps=7 w=6.67 l=1.73
X2 VTAIL.t17 VN.t1 VDD2.t8 w_n3442_n2302# sky130_fd_pr__pfet_01v8 ad=1.10055 pd=7 as=1.10055 ps=7 w=6.67 l=1.73
X3 B.t11 B.t9 B.t10 w_n3442_n2302# sky130_fd_pr__pfet_01v8 ad=2.6013 pd=14.12 as=0 ps=0 w=6.67 l=1.73
X4 VDD2.t7 VN.t2 VTAIL.t19 w_n3442_n2302# sky130_fd_pr__pfet_01v8 ad=1.10055 pd=7 as=1.10055 ps=7 w=6.67 l=1.73
X5 VTAIL.t14 VN.t3 VDD2.t6 w_n3442_n2302# sky130_fd_pr__pfet_01v8 ad=1.10055 pd=7 as=1.10055 ps=7 w=6.67 l=1.73
X6 VDD1.t8 VP.t1 VTAIL.t0 w_n3442_n2302# sky130_fd_pr__pfet_01v8 ad=2.6013 pd=14.12 as=1.10055 ps=7 w=6.67 l=1.73
X7 VTAIL.t1 VP.t2 VDD1.t7 w_n3442_n2302# sky130_fd_pr__pfet_01v8 ad=1.10055 pd=7 as=1.10055 ps=7 w=6.67 l=1.73
X8 VTAIL.t7 VP.t3 VDD1.t6 w_n3442_n2302# sky130_fd_pr__pfet_01v8 ad=1.10055 pd=7 as=1.10055 ps=7 w=6.67 l=1.73
X9 VTAIL.t15 VN.t4 VDD2.t5 w_n3442_n2302# sky130_fd_pr__pfet_01v8 ad=1.10055 pd=7 as=1.10055 ps=7 w=6.67 l=1.73
X10 VTAIL.t4 VP.t4 VDD1.t5 w_n3442_n2302# sky130_fd_pr__pfet_01v8 ad=1.10055 pd=7 as=1.10055 ps=7 w=6.67 l=1.73
X11 B.t8 B.t6 B.t7 w_n3442_n2302# sky130_fd_pr__pfet_01v8 ad=2.6013 pd=14.12 as=0 ps=0 w=6.67 l=1.73
X12 VDD1.t4 VP.t5 VTAIL.t3 w_n3442_n2302# sky130_fd_pr__pfet_01v8 ad=1.10055 pd=7 as=1.10055 ps=7 w=6.67 l=1.73
X13 VDD2.t4 VN.t5 VTAIL.t11 w_n3442_n2302# sky130_fd_pr__pfet_01v8 ad=1.10055 pd=7 as=2.6013 ps=14.12 w=6.67 l=1.73
X14 VDD2.t3 VN.t6 VTAIL.t12 w_n3442_n2302# sky130_fd_pr__pfet_01v8 ad=1.10055 pd=7 as=1.10055 ps=7 w=6.67 l=1.73
X15 VDD1.t3 VP.t6 VTAIL.t8 w_n3442_n2302# sky130_fd_pr__pfet_01v8 ad=2.6013 pd=14.12 as=1.10055 ps=7 w=6.67 l=1.73
X16 VDD1.t2 VP.t7 VTAIL.t6 w_n3442_n2302# sky130_fd_pr__pfet_01v8 ad=1.10055 pd=7 as=2.6013 ps=14.12 w=6.67 l=1.73
X17 B.t5 B.t3 B.t4 w_n3442_n2302# sky130_fd_pr__pfet_01v8 ad=2.6013 pd=14.12 as=0 ps=0 w=6.67 l=1.73
X18 VTAIL.t10 VN.t7 VDD2.t2 w_n3442_n2302# sky130_fd_pr__pfet_01v8 ad=1.10055 pd=7 as=1.10055 ps=7 w=6.67 l=1.73
X19 B.t2 B.t0 B.t1 w_n3442_n2302# sky130_fd_pr__pfet_01v8 ad=2.6013 pd=14.12 as=0 ps=0 w=6.67 l=1.73
X20 VTAIL.t5 VP.t8 VDD1.t1 w_n3442_n2302# sky130_fd_pr__pfet_01v8 ad=1.10055 pd=7 as=1.10055 ps=7 w=6.67 l=1.73
X21 VDD2.t1 VN.t8 VTAIL.t16 w_n3442_n2302# sky130_fd_pr__pfet_01v8 ad=2.6013 pd=14.12 as=1.10055 ps=7 w=6.67 l=1.73
X22 VDD2.t0 VN.t9 VTAIL.t13 w_n3442_n2302# sky130_fd_pr__pfet_01v8 ad=1.10055 pd=7 as=2.6013 ps=14.12 w=6.67 l=1.73
X23 VDD1.t0 VP.t9 VTAIL.t9 w_n3442_n2302# sky130_fd_pr__pfet_01v8 ad=1.10055 pd=7 as=2.6013 ps=14.12 w=6.67 l=1.73
R0 VN.n30 VN.n29 179.895
R1 VN.n61 VN.n60 179.895
R2 VN.n59 VN.n31 161.3
R3 VN.n58 VN.n57 161.3
R4 VN.n56 VN.n32 161.3
R5 VN.n55 VN.n54 161.3
R6 VN.n52 VN.n33 161.3
R7 VN.n51 VN.n50 161.3
R8 VN.n49 VN.n34 161.3
R9 VN.n48 VN.n47 161.3
R10 VN.n46 VN.n35 161.3
R11 VN.n45 VN.n44 161.3
R12 VN.n43 VN.n36 161.3
R13 VN.n42 VN.n41 161.3
R14 VN.n40 VN.n37 161.3
R15 VN.n28 VN.n0 161.3
R16 VN.n27 VN.n26 161.3
R17 VN.n25 VN.n1 161.3
R18 VN.n24 VN.n23 161.3
R19 VN.n21 VN.n2 161.3
R20 VN.n20 VN.n19 161.3
R21 VN.n18 VN.n3 161.3
R22 VN.n17 VN.n16 161.3
R23 VN.n15 VN.n4 161.3
R24 VN.n14 VN.n13 161.3
R25 VN.n12 VN.n5 161.3
R26 VN.n11 VN.n10 161.3
R27 VN.n9 VN.n6 161.3
R28 VN.n7 VN.t8 123.969
R29 VN.n38 VN.t5 123.969
R30 VN.n15 VN.t6 92.9178
R31 VN.n8 VN.t7 92.9178
R32 VN.n22 VN.t1 92.9178
R33 VN.n29 VN.t9 92.9178
R34 VN.n46 VN.t2 92.9178
R35 VN.n39 VN.t4 92.9178
R36 VN.n53 VN.t3 92.9178
R37 VN.n60 VN.t0 92.9178
R38 VN.n8 VN.n7 64.8059
R39 VN.n39 VN.n38 64.8059
R40 VN.n27 VN.n1 49.2348
R41 VN.n58 VN.n32 49.2348
R42 VN VN.n61 44.6463
R43 VN.n10 VN.n5 43.4072
R44 VN.n20 VN.n3 43.4072
R45 VN.n41 VN.n36 43.4072
R46 VN.n51 VN.n34 43.4072
R47 VN.n14 VN.n5 37.5796
R48 VN.n16 VN.n3 37.5796
R49 VN.n45 VN.n36 37.5796
R50 VN.n47 VN.n34 37.5796
R51 VN.n23 VN.n1 31.752
R52 VN.n54 VN.n32 31.752
R53 VN.n10 VN.n9 24.4675
R54 VN.n15 VN.n14 24.4675
R55 VN.n16 VN.n15 24.4675
R56 VN.n21 VN.n20 24.4675
R57 VN.n28 VN.n27 24.4675
R58 VN.n41 VN.n40 24.4675
R59 VN.n47 VN.n46 24.4675
R60 VN.n46 VN.n45 24.4675
R61 VN.n52 VN.n51 24.4675
R62 VN.n59 VN.n58 24.4675
R63 VN.n23 VN.n22 21.5315
R64 VN.n54 VN.n53 21.5315
R65 VN.n38 VN.n37 18.3181
R66 VN.n7 VN.n6 18.3181
R67 VN.n29 VN.n28 5.87258
R68 VN.n60 VN.n59 5.87258
R69 VN.n9 VN.n8 2.93654
R70 VN.n22 VN.n21 2.93654
R71 VN.n40 VN.n39 2.93654
R72 VN.n53 VN.n52 2.93654
R73 VN.n61 VN.n31 0.189894
R74 VN.n57 VN.n31 0.189894
R75 VN.n57 VN.n56 0.189894
R76 VN.n56 VN.n55 0.189894
R77 VN.n55 VN.n33 0.189894
R78 VN.n50 VN.n33 0.189894
R79 VN.n50 VN.n49 0.189894
R80 VN.n49 VN.n48 0.189894
R81 VN.n48 VN.n35 0.189894
R82 VN.n44 VN.n35 0.189894
R83 VN.n44 VN.n43 0.189894
R84 VN.n43 VN.n42 0.189894
R85 VN.n42 VN.n37 0.189894
R86 VN.n11 VN.n6 0.189894
R87 VN.n12 VN.n11 0.189894
R88 VN.n13 VN.n12 0.189894
R89 VN.n13 VN.n4 0.189894
R90 VN.n17 VN.n4 0.189894
R91 VN.n18 VN.n17 0.189894
R92 VN.n19 VN.n18 0.189894
R93 VN.n19 VN.n2 0.189894
R94 VN.n24 VN.n2 0.189894
R95 VN.n25 VN.n24 0.189894
R96 VN.n26 VN.n25 0.189894
R97 VN.n26 VN.n0 0.189894
R98 VN.n30 VN.n0 0.189894
R99 VN VN.n30 0.0516364
R100 VTAIL.n152 VTAIL.n122 756.745
R101 VTAIL.n32 VTAIL.n2 756.745
R102 VTAIL.n116 VTAIL.n86 756.745
R103 VTAIL.n76 VTAIL.n46 756.745
R104 VTAIL.n135 VTAIL.n134 585
R105 VTAIL.n137 VTAIL.n136 585
R106 VTAIL.n130 VTAIL.n129 585
R107 VTAIL.n143 VTAIL.n142 585
R108 VTAIL.n145 VTAIL.n144 585
R109 VTAIL.n126 VTAIL.n125 585
R110 VTAIL.n151 VTAIL.n150 585
R111 VTAIL.n153 VTAIL.n152 585
R112 VTAIL.n15 VTAIL.n14 585
R113 VTAIL.n17 VTAIL.n16 585
R114 VTAIL.n10 VTAIL.n9 585
R115 VTAIL.n23 VTAIL.n22 585
R116 VTAIL.n25 VTAIL.n24 585
R117 VTAIL.n6 VTAIL.n5 585
R118 VTAIL.n31 VTAIL.n30 585
R119 VTAIL.n33 VTAIL.n32 585
R120 VTAIL.n117 VTAIL.n116 585
R121 VTAIL.n115 VTAIL.n114 585
R122 VTAIL.n90 VTAIL.n89 585
R123 VTAIL.n109 VTAIL.n108 585
R124 VTAIL.n107 VTAIL.n106 585
R125 VTAIL.n94 VTAIL.n93 585
R126 VTAIL.n101 VTAIL.n100 585
R127 VTAIL.n99 VTAIL.n98 585
R128 VTAIL.n77 VTAIL.n76 585
R129 VTAIL.n75 VTAIL.n74 585
R130 VTAIL.n50 VTAIL.n49 585
R131 VTAIL.n69 VTAIL.n68 585
R132 VTAIL.n67 VTAIL.n66 585
R133 VTAIL.n54 VTAIL.n53 585
R134 VTAIL.n61 VTAIL.n60 585
R135 VTAIL.n59 VTAIL.n58 585
R136 VTAIL.n133 VTAIL.t13 327.514
R137 VTAIL.n13 VTAIL.t6 327.514
R138 VTAIL.n97 VTAIL.t9 327.514
R139 VTAIL.n57 VTAIL.t11 327.514
R140 VTAIL.n136 VTAIL.n135 171.744
R141 VTAIL.n136 VTAIL.n129 171.744
R142 VTAIL.n143 VTAIL.n129 171.744
R143 VTAIL.n144 VTAIL.n143 171.744
R144 VTAIL.n144 VTAIL.n125 171.744
R145 VTAIL.n151 VTAIL.n125 171.744
R146 VTAIL.n152 VTAIL.n151 171.744
R147 VTAIL.n16 VTAIL.n15 171.744
R148 VTAIL.n16 VTAIL.n9 171.744
R149 VTAIL.n23 VTAIL.n9 171.744
R150 VTAIL.n24 VTAIL.n23 171.744
R151 VTAIL.n24 VTAIL.n5 171.744
R152 VTAIL.n31 VTAIL.n5 171.744
R153 VTAIL.n32 VTAIL.n31 171.744
R154 VTAIL.n116 VTAIL.n115 171.744
R155 VTAIL.n115 VTAIL.n89 171.744
R156 VTAIL.n108 VTAIL.n89 171.744
R157 VTAIL.n108 VTAIL.n107 171.744
R158 VTAIL.n107 VTAIL.n93 171.744
R159 VTAIL.n100 VTAIL.n93 171.744
R160 VTAIL.n100 VTAIL.n99 171.744
R161 VTAIL.n76 VTAIL.n75 171.744
R162 VTAIL.n75 VTAIL.n49 171.744
R163 VTAIL.n68 VTAIL.n49 171.744
R164 VTAIL.n68 VTAIL.n67 171.744
R165 VTAIL.n67 VTAIL.n53 171.744
R166 VTAIL.n60 VTAIL.n53 171.744
R167 VTAIL.n60 VTAIL.n59 171.744
R168 VTAIL.n135 VTAIL.t13 85.8723
R169 VTAIL.n15 VTAIL.t6 85.8723
R170 VTAIL.n99 VTAIL.t9 85.8723
R171 VTAIL.n59 VTAIL.t11 85.8723
R172 VTAIL.n85 VTAIL.n84 70.7505
R173 VTAIL.n83 VTAIL.n82 70.7505
R174 VTAIL.n45 VTAIL.n44 70.7505
R175 VTAIL.n43 VTAIL.n42 70.7505
R176 VTAIL.n159 VTAIL.n158 70.7503
R177 VTAIL.n1 VTAIL.n0 70.7503
R178 VTAIL.n39 VTAIL.n38 70.7503
R179 VTAIL.n41 VTAIL.n40 70.7503
R180 VTAIL.n157 VTAIL.n156 31.2157
R181 VTAIL.n37 VTAIL.n36 31.2157
R182 VTAIL.n121 VTAIL.n120 31.2157
R183 VTAIL.n81 VTAIL.n80 31.2157
R184 VTAIL.n43 VTAIL.n41 21.6686
R185 VTAIL.n157 VTAIL.n121 19.8927
R186 VTAIL.n134 VTAIL.n133 16.3884
R187 VTAIL.n14 VTAIL.n13 16.3884
R188 VTAIL.n98 VTAIL.n97 16.3884
R189 VTAIL.n58 VTAIL.n57 16.3884
R190 VTAIL.n137 VTAIL.n132 12.8005
R191 VTAIL.n17 VTAIL.n12 12.8005
R192 VTAIL.n101 VTAIL.n96 12.8005
R193 VTAIL.n61 VTAIL.n56 12.8005
R194 VTAIL.n138 VTAIL.n130 12.0247
R195 VTAIL.n18 VTAIL.n10 12.0247
R196 VTAIL.n102 VTAIL.n94 12.0247
R197 VTAIL.n62 VTAIL.n54 12.0247
R198 VTAIL.n142 VTAIL.n141 11.249
R199 VTAIL.n22 VTAIL.n21 11.249
R200 VTAIL.n106 VTAIL.n105 11.249
R201 VTAIL.n66 VTAIL.n65 11.249
R202 VTAIL.n145 VTAIL.n128 10.4732
R203 VTAIL.n25 VTAIL.n8 10.4732
R204 VTAIL.n109 VTAIL.n92 10.4732
R205 VTAIL.n69 VTAIL.n52 10.4732
R206 VTAIL.n146 VTAIL.n126 9.69747
R207 VTAIL.n26 VTAIL.n6 9.69747
R208 VTAIL.n110 VTAIL.n90 9.69747
R209 VTAIL.n70 VTAIL.n50 9.69747
R210 VTAIL.n156 VTAIL.n155 9.45567
R211 VTAIL.n36 VTAIL.n35 9.45567
R212 VTAIL.n120 VTAIL.n119 9.45567
R213 VTAIL.n80 VTAIL.n79 9.45567
R214 VTAIL.n124 VTAIL.n123 9.3005
R215 VTAIL.n149 VTAIL.n148 9.3005
R216 VTAIL.n147 VTAIL.n146 9.3005
R217 VTAIL.n128 VTAIL.n127 9.3005
R218 VTAIL.n141 VTAIL.n140 9.3005
R219 VTAIL.n139 VTAIL.n138 9.3005
R220 VTAIL.n132 VTAIL.n131 9.3005
R221 VTAIL.n155 VTAIL.n154 9.3005
R222 VTAIL.n4 VTAIL.n3 9.3005
R223 VTAIL.n29 VTAIL.n28 9.3005
R224 VTAIL.n27 VTAIL.n26 9.3005
R225 VTAIL.n8 VTAIL.n7 9.3005
R226 VTAIL.n21 VTAIL.n20 9.3005
R227 VTAIL.n19 VTAIL.n18 9.3005
R228 VTAIL.n12 VTAIL.n11 9.3005
R229 VTAIL.n35 VTAIL.n34 9.3005
R230 VTAIL.n119 VTAIL.n118 9.3005
R231 VTAIL.n88 VTAIL.n87 9.3005
R232 VTAIL.n113 VTAIL.n112 9.3005
R233 VTAIL.n111 VTAIL.n110 9.3005
R234 VTAIL.n92 VTAIL.n91 9.3005
R235 VTAIL.n105 VTAIL.n104 9.3005
R236 VTAIL.n103 VTAIL.n102 9.3005
R237 VTAIL.n96 VTAIL.n95 9.3005
R238 VTAIL.n79 VTAIL.n78 9.3005
R239 VTAIL.n48 VTAIL.n47 9.3005
R240 VTAIL.n73 VTAIL.n72 9.3005
R241 VTAIL.n71 VTAIL.n70 9.3005
R242 VTAIL.n52 VTAIL.n51 9.3005
R243 VTAIL.n65 VTAIL.n64 9.3005
R244 VTAIL.n63 VTAIL.n62 9.3005
R245 VTAIL.n56 VTAIL.n55 9.3005
R246 VTAIL.n150 VTAIL.n149 8.92171
R247 VTAIL.n30 VTAIL.n29 8.92171
R248 VTAIL.n114 VTAIL.n113 8.92171
R249 VTAIL.n74 VTAIL.n73 8.92171
R250 VTAIL.n153 VTAIL.n124 8.14595
R251 VTAIL.n33 VTAIL.n4 8.14595
R252 VTAIL.n117 VTAIL.n88 8.14595
R253 VTAIL.n77 VTAIL.n48 8.14595
R254 VTAIL.n154 VTAIL.n122 7.3702
R255 VTAIL.n34 VTAIL.n2 7.3702
R256 VTAIL.n118 VTAIL.n86 7.3702
R257 VTAIL.n78 VTAIL.n46 7.3702
R258 VTAIL.n156 VTAIL.n122 6.59444
R259 VTAIL.n36 VTAIL.n2 6.59444
R260 VTAIL.n120 VTAIL.n86 6.59444
R261 VTAIL.n80 VTAIL.n46 6.59444
R262 VTAIL.n154 VTAIL.n153 5.81868
R263 VTAIL.n34 VTAIL.n33 5.81868
R264 VTAIL.n118 VTAIL.n117 5.81868
R265 VTAIL.n78 VTAIL.n77 5.81868
R266 VTAIL.n150 VTAIL.n124 5.04292
R267 VTAIL.n30 VTAIL.n4 5.04292
R268 VTAIL.n114 VTAIL.n88 5.04292
R269 VTAIL.n74 VTAIL.n48 5.04292
R270 VTAIL.n158 VTAIL.t12 4.87381
R271 VTAIL.n158 VTAIL.t17 4.87381
R272 VTAIL.n0 VTAIL.t16 4.87381
R273 VTAIL.n0 VTAIL.t10 4.87381
R274 VTAIL.n38 VTAIL.t2 4.87381
R275 VTAIL.n38 VTAIL.t1 4.87381
R276 VTAIL.n40 VTAIL.t0 4.87381
R277 VTAIL.n40 VTAIL.t5 4.87381
R278 VTAIL.n84 VTAIL.t3 4.87381
R279 VTAIL.n84 VTAIL.t7 4.87381
R280 VTAIL.n82 VTAIL.t8 4.87381
R281 VTAIL.n82 VTAIL.t4 4.87381
R282 VTAIL.n44 VTAIL.t19 4.87381
R283 VTAIL.n44 VTAIL.t15 4.87381
R284 VTAIL.n42 VTAIL.t18 4.87381
R285 VTAIL.n42 VTAIL.t14 4.87381
R286 VTAIL.n149 VTAIL.n126 4.26717
R287 VTAIL.n29 VTAIL.n6 4.26717
R288 VTAIL.n113 VTAIL.n90 4.26717
R289 VTAIL.n73 VTAIL.n50 4.26717
R290 VTAIL.n133 VTAIL.n131 3.71088
R291 VTAIL.n13 VTAIL.n11 3.71088
R292 VTAIL.n97 VTAIL.n95 3.71088
R293 VTAIL.n57 VTAIL.n55 3.71088
R294 VTAIL.n146 VTAIL.n145 3.49141
R295 VTAIL.n26 VTAIL.n25 3.49141
R296 VTAIL.n110 VTAIL.n109 3.49141
R297 VTAIL.n70 VTAIL.n69 3.49141
R298 VTAIL.n142 VTAIL.n128 2.71565
R299 VTAIL.n22 VTAIL.n8 2.71565
R300 VTAIL.n106 VTAIL.n92 2.71565
R301 VTAIL.n66 VTAIL.n52 2.71565
R302 VTAIL.n141 VTAIL.n130 1.93989
R303 VTAIL.n21 VTAIL.n10 1.93989
R304 VTAIL.n105 VTAIL.n94 1.93989
R305 VTAIL.n65 VTAIL.n54 1.93989
R306 VTAIL.n45 VTAIL.n43 1.77636
R307 VTAIL.n81 VTAIL.n45 1.77636
R308 VTAIL.n85 VTAIL.n83 1.77636
R309 VTAIL.n121 VTAIL.n85 1.77636
R310 VTAIL.n41 VTAIL.n39 1.77636
R311 VTAIL.n39 VTAIL.n37 1.77636
R312 VTAIL.n159 VTAIL.n157 1.77636
R313 VTAIL VTAIL.n1 1.39059
R314 VTAIL.n83 VTAIL.n81 1.35826
R315 VTAIL.n37 VTAIL.n1 1.35826
R316 VTAIL.n138 VTAIL.n137 1.16414
R317 VTAIL.n18 VTAIL.n17 1.16414
R318 VTAIL.n102 VTAIL.n101 1.16414
R319 VTAIL.n62 VTAIL.n61 1.16414
R320 VTAIL.n134 VTAIL.n132 0.388379
R321 VTAIL.n14 VTAIL.n12 0.388379
R322 VTAIL.n98 VTAIL.n96 0.388379
R323 VTAIL.n58 VTAIL.n56 0.388379
R324 VTAIL VTAIL.n159 0.386276
R325 VTAIL.n139 VTAIL.n131 0.155672
R326 VTAIL.n140 VTAIL.n139 0.155672
R327 VTAIL.n140 VTAIL.n127 0.155672
R328 VTAIL.n147 VTAIL.n127 0.155672
R329 VTAIL.n148 VTAIL.n147 0.155672
R330 VTAIL.n148 VTAIL.n123 0.155672
R331 VTAIL.n155 VTAIL.n123 0.155672
R332 VTAIL.n19 VTAIL.n11 0.155672
R333 VTAIL.n20 VTAIL.n19 0.155672
R334 VTAIL.n20 VTAIL.n7 0.155672
R335 VTAIL.n27 VTAIL.n7 0.155672
R336 VTAIL.n28 VTAIL.n27 0.155672
R337 VTAIL.n28 VTAIL.n3 0.155672
R338 VTAIL.n35 VTAIL.n3 0.155672
R339 VTAIL.n119 VTAIL.n87 0.155672
R340 VTAIL.n112 VTAIL.n87 0.155672
R341 VTAIL.n112 VTAIL.n111 0.155672
R342 VTAIL.n111 VTAIL.n91 0.155672
R343 VTAIL.n104 VTAIL.n91 0.155672
R344 VTAIL.n104 VTAIL.n103 0.155672
R345 VTAIL.n103 VTAIL.n95 0.155672
R346 VTAIL.n79 VTAIL.n47 0.155672
R347 VTAIL.n72 VTAIL.n47 0.155672
R348 VTAIL.n72 VTAIL.n71 0.155672
R349 VTAIL.n71 VTAIL.n51 0.155672
R350 VTAIL.n64 VTAIL.n51 0.155672
R351 VTAIL.n64 VTAIL.n63 0.155672
R352 VTAIL.n63 VTAIL.n55 0.155672
R353 VDD2.n69 VDD2.n39 756.745
R354 VDD2.n30 VDD2.n0 756.745
R355 VDD2.n70 VDD2.n69 585
R356 VDD2.n68 VDD2.n67 585
R357 VDD2.n43 VDD2.n42 585
R358 VDD2.n62 VDD2.n61 585
R359 VDD2.n60 VDD2.n59 585
R360 VDD2.n47 VDD2.n46 585
R361 VDD2.n54 VDD2.n53 585
R362 VDD2.n52 VDD2.n51 585
R363 VDD2.n13 VDD2.n12 585
R364 VDD2.n15 VDD2.n14 585
R365 VDD2.n8 VDD2.n7 585
R366 VDD2.n21 VDD2.n20 585
R367 VDD2.n23 VDD2.n22 585
R368 VDD2.n4 VDD2.n3 585
R369 VDD2.n29 VDD2.n28 585
R370 VDD2.n31 VDD2.n30 585
R371 VDD2.n50 VDD2.t9 327.514
R372 VDD2.n11 VDD2.t1 327.514
R373 VDD2.n69 VDD2.n68 171.744
R374 VDD2.n68 VDD2.n42 171.744
R375 VDD2.n61 VDD2.n42 171.744
R376 VDD2.n61 VDD2.n60 171.744
R377 VDD2.n60 VDD2.n46 171.744
R378 VDD2.n53 VDD2.n46 171.744
R379 VDD2.n53 VDD2.n52 171.744
R380 VDD2.n14 VDD2.n13 171.744
R381 VDD2.n14 VDD2.n7 171.744
R382 VDD2.n21 VDD2.n7 171.744
R383 VDD2.n22 VDD2.n21 171.744
R384 VDD2.n22 VDD2.n3 171.744
R385 VDD2.n29 VDD2.n3 171.744
R386 VDD2.n30 VDD2.n29 171.744
R387 VDD2.n38 VDD2.n37 88.7057
R388 VDD2 VDD2.n77 88.7028
R389 VDD2.n76 VDD2.n75 87.4293
R390 VDD2.n36 VDD2.n35 87.4291
R391 VDD2.n52 VDD2.t9 85.8723
R392 VDD2.n13 VDD2.t1 85.8723
R393 VDD2.n36 VDD2.n34 49.6703
R394 VDD2.n74 VDD2.n73 47.8944
R395 VDD2.n74 VDD2.n38 37.9006
R396 VDD2.n12 VDD2.n11 16.3884
R397 VDD2.n51 VDD2.n50 16.3884
R398 VDD2.n54 VDD2.n49 12.8005
R399 VDD2.n15 VDD2.n10 12.8005
R400 VDD2.n55 VDD2.n47 12.0247
R401 VDD2.n16 VDD2.n8 12.0247
R402 VDD2.n59 VDD2.n58 11.249
R403 VDD2.n20 VDD2.n19 11.249
R404 VDD2.n62 VDD2.n45 10.4732
R405 VDD2.n23 VDD2.n6 10.4732
R406 VDD2.n63 VDD2.n43 9.69747
R407 VDD2.n24 VDD2.n4 9.69747
R408 VDD2.n73 VDD2.n72 9.45567
R409 VDD2.n34 VDD2.n33 9.45567
R410 VDD2.n72 VDD2.n71 9.3005
R411 VDD2.n41 VDD2.n40 9.3005
R412 VDD2.n66 VDD2.n65 9.3005
R413 VDD2.n64 VDD2.n63 9.3005
R414 VDD2.n45 VDD2.n44 9.3005
R415 VDD2.n58 VDD2.n57 9.3005
R416 VDD2.n56 VDD2.n55 9.3005
R417 VDD2.n49 VDD2.n48 9.3005
R418 VDD2.n2 VDD2.n1 9.3005
R419 VDD2.n27 VDD2.n26 9.3005
R420 VDD2.n25 VDD2.n24 9.3005
R421 VDD2.n6 VDD2.n5 9.3005
R422 VDD2.n19 VDD2.n18 9.3005
R423 VDD2.n17 VDD2.n16 9.3005
R424 VDD2.n10 VDD2.n9 9.3005
R425 VDD2.n33 VDD2.n32 9.3005
R426 VDD2.n67 VDD2.n66 8.92171
R427 VDD2.n28 VDD2.n27 8.92171
R428 VDD2.n70 VDD2.n41 8.14595
R429 VDD2.n31 VDD2.n2 8.14595
R430 VDD2.n71 VDD2.n39 7.3702
R431 VDD2.n32 VDD2.n0 7.3702
R432 VDD2.n73 VDD2.n39 6.59444
R433 VDD2.n34 VDD2.n0 6.59444
R434 VDD2.n71 VDD2.n70 5.81868
R435 VDD2.n32 VDD2.n31 5.81868
R436 VDD2.n67 VDD2.n41 5.04292
R437 VDD2.n28 VDD2.n2 5.04292
R438 VDD2.n77 VDD2.t5 4.87381
R439 VDD2.n77 VDD2.t4 4.87381
R440 VDD2.n75 VDD2.t6 4.87381
R441 VDD2.n75 VDD2.t7 4.87381
R442 VDD2.n37 VDD2.t8 4.87381
R443 VDD2.n37 VDD2.t0 4.87381
R444 VDD2.n35 VDD2.t2 4.87381
R445 VDD2.n35 VDD2.t3 4.87381
R446 VDD2.n66 VDD2.n43 4.26717
R447 VDD2.n27 VDD2.n4 4.26717
R448 VDD2.n50 VDD2.n48 3.71088
R449 VDD2.n11 VDD2.n9 3.71088
R450 VDD2.n63 VDD2.n62 3.49141
R451 VDD2.n24 VDD2.n23 3.49141
R452 VDD2.n59 VDD2.n45 2.71565
R453 VDD2.n20 VDD2.n6 2.71565
R454 VDD2.n58 VDD2.n47 1.93989
R455 VDD2.n19 VDD2.n8 1.93989
R456 VDD2.n76 VDD2.n74 1.77636
R457 VDD2.n55 VDD2.n54 1.16414
R458 VDD2.n16 VDD2.n15 1.16414
R459 VDD2 VDD2.n76 0.502655
R460 VDD2.n38 VDD2.n36 0.389119
R461 VDD2.n51 VDD2.n49 0.388379
R462 VDD2.n12 VDD2.n10 0.388379
R463 VDD2.n72 VDD2.n40 0.155672
R464 VDD2.n65 VDD2.n40 0.155672
R465 VDD2.n65 VDD2.n64 0.155672
R466 VDD2.n64 VDD2.n44 0.155672
R467 VDD2.n57 VDD2.n44 0.155672
R468 VDD2.n57 VDD2.n56 0.155672
R469 VDD2.n56 VDD2.n48 0.155672
R470 VDD2.n17 VDD2.n9 0.155672
R471 VDD2.n18 VDD2.n17 0.155672
R472 VDD2.n18 VDD2.n5 0.155672
R473 VDD2.n25 VDD2.n5 0.155672
R474 VDD2.n26 VDD2.n25 0.155672
R475 VDD2.n26 VDD2.n1 0.155672
R476 VDD2.n33 VDD2.n1 0.155672
R477 VP.n41 VP.n40 179.895
R478 VP.n70 VP.n69 179.895
R479 VP.n39 VP.n38 179.895
R480 VP.n18 VP.n15 161.3
R481 VP.n20 VP.n19 161.3
R482 VP.n21 VP.n14 161.3
R483 VP.n23 VP.n22 161.3
R484 VP.n24 VP.n13 161.3
R485 VP.n26 VP.n25 161.3
R486 VP.n27 VP.n12 161.3
R487 VP.n29 VP.n28 161.3
R488 VP.n30 VP.n11 161.3
R489 VP.n33 VP.n32 161.3
R490 VP.n34 VP.n10 161.3
R491 VP.n36 VP.n35 161.3
R492 VP.n37 VP.n9 161.3
R493 VP.n68 VP.n0 161.3
R494 VP.n67 VP.n66 161.3
R495 VP.n65 VP.n1 161.3
R496 VP.n64 VP.n63 161.3
R497 VP.n61 VP.n2 161.3
R498 VP.n60 VP.n59 161.3
R499 VP.n58 VP.n3 161.3
R500 VP.n57 VP.n56 161.3
R501 VP.n55 VP.n4 161.3
R502 VP.n54 VP.n53 161.3
R503 VP.n52 VP.n5 161.3
R504 VP.n51 VP.n50 161.3
R505 VP.n49 VP.n6 161.3
R506 VP.n47 VP.n46 161.3
R507 VP.n45 VP.n7 161.3
R508 VP.n44 VP.n43 161.3
R509 VP.n42 VP.n8 161.3
R510 VP.n16 VP.t6 123.969
R511 VP.n55 VP.t0 92.9178
R512 VP.n41 VP.t1 92.9178
R513 VP.n48 VP.t8 92.9178
R514 VP.n62 VP.t2 92.9178
R515 VP.n69 VP.t7 92.9178
R516 VP.n24 VP.t5 92.9178
R517 VP.n38 VP.t9 92.9178
R518 VP.n31 VP.t3 92.9178
R519 VP.n17 VP.t4 92.9178
R520 VP.n17 VP.n16 64.8059
R521 VP.n43 VP.n7 49.2348
R522 VP.n67 VP.n1 49.2348
R523 VP.n36 VP.n10 49.2348
R524 VP.n40 VP.n39 44.2656
R525 VP.n50 VP.n5 43.4072
R526 VP.n60 VP.n3 43.4072
R527 VP.n29 VP.n12 43.4072
R528 VP.n19 VP.n14 43.4072
R529 VP.n54 VP.n5 37.5796
R530 VP.n56 VP.n3 37.5796
R531 VP.n25 VP.n12 37.5796
R532 VP.n23 VP.n14 37.5796
R533 VP.n47 VP.n7 31.752
R534 VP.n63 VP.n1 31.752
R535 VP.n32 VP.n10 31.752
R536 VP.n43 VP.n42 24.4675
R537 VP.n50 VP.n49 24.4675
R538 VP.n55 VP.n54 24.4675
R539 VP.n56 VP.n55 24.4675
R540 VP.n61 VP.n60 24.4675
R541 VP.n68 VP.n67 24.4675
R542 VP.n37 VP.n36 24.4675
R543 VP.n30 VP.n29 24.4675
R544 VP.n24 VP.n23 24.4675
R545 VP.n25 VP.n24 24.4675
R546 VP.n19 VP.n18 24.4675
R547 VP.n48 VP.n47 21.5315
R548 VP.n63 VP.n62 21.5315
R549 VP.n32 VP.n31 21.5315
R550 VP.n16 VP.n15 18.3181
R551 VP.n42 VP.n41 5.87258
R552 VP.n69 VP.n68 5.87258
R553 VP.n38 VP.n37 5.87258
R554 VP.n49 VP.n48 2.93654
R555 VP.n62 VP.n61 2.93654
R556 VP.n31 VP.n30 2.93654
R557 VP.n18 VP.n17 2.93654
R558 VP.n20 VP.n15 0.189894
R559 VP.n21 VP.n20 0.189894
R560 VP.n22 VP.n21 0.189894
R561 VP.n22 VP.n13 0.189894
R562 VP.n26 VP.n13 0.189894
R563 VP.n27 VP.n26 0.189894
R564 VP.n28 VP.n27 0.189894
R565 VP.n28 VP.n11 0.189894
R566 VP.n33 VP.n11 0.189894
R567 VP.n34 VP.n33 0.189894
R568 VP.n35 VP.n34 0.189894
R569 VP.n35 VP.n9 0.189894
R570 VP.n39 VP.n9 0.189894
R571 VP.n40 VP.n8 0.189894
R572 VP.n44 VP.n8 0.189894
R573 VP.n45 VP.n44 0.189894
R574 VP.n46 VP.n45 0.189894
R575 VP.n46 VP.n6 0.189894
R576 VP.n51 VP.n6 0.189894
R577 VP.n52 VP.n51 0.189894
R578 VP.n53 VP.n52 0.189894
R579 VP.n53 VP.n4 0.189894
R580 VP.n57 VP.n4 0.189894
R581 VP.n58 VP.n57 0.189894
R582 VP.n59 VP.n58 0.189894
R583 VP.n59 VP.n2 0.189894
R584 VP.n64 VP.n2 0.189894
R585 VP.n65 VP.n64 0.189894
R586 VP.n66 VP.n65 0.189894
R587 VP.n66 VP.n0 0.189894
R588 VP.n70 VP.n0 0.189894
R589 VP VP.n70 0.0516364
R590 VDD1.n30 VDD1.n0 756.745
R591 VDD1.n67 VDD1.n37 756.745
R592 VDD1.n31 VDD1.n30 585
R593 VDD1.n29 VDD1.n28 585
R594 VDD1.n4 VDD1.n3 585
R595 VDD1.n23 VDD1.n22 585
R596 VDD1.n21 VDD1.n20 585
R597 VDD1.n8 VDD1.n7 585
R598 VDD1.n15 VDD1.n14 585
R599 VDD1.n13 VDD1.n12 585
R600 VDD1.n50 VDD1.n49 585
R601 VDD1.n52 VDD1.n51 585
R602 VDD1.n45 VDD1.n44 585
R603 VDD1.n58 VDD1.n57 585
R604 VDD1.n60 VDD1.n59 585
R605 VDD1.n41 VDD1.n40 585
R606 VDD1.n66 VDD1.n65 585
R607 VDD1.n68 VDD1.n67 585
R608 VDD1.n11 VDD1.t3 327.514
R609 VDD1.n48 VDD1.t8 327.514
R610 VDD1.n30 VDD1.n29 171.744
R611 VDD1.n29 VDD1.n3 171.744
R612 VDD1.n22 VDD1.n3 171.744
R613 VDD1.n22 VDD1.n21 171.744
R614 VDD1.n21 VDD1.n7 171.744
R615 VDD1.n14 VDD1.n7 171.744
R616 VDD1.n14 VDD1.n13 171.744
R617 VDD1.n51 VDD1.n50 171.744
R618 VDD1.n51 VDD1.n44 171.744
R619 VDD1.n58 VDD1.n44 171.744
R620 VDD1.n59 VDD1.n58 171.744
R621 VDD1.n59 VDD1.n40 171.744
R622 VDD1.n66 VDD1.n40 171.744
R623 VDD1.n67 VDD1.n66 171.744
R624 VDD1.n75 VDD1.n74 88.7057
R625 VDD1.n36 VDD1.n35 87.4293
R626 VDD1.n77 VDD1.n76 87.4291
R627 VDD1.n73 VDD1.n72 87.4291
R628 VDD1.n13 VDD1.t3 85.8723
R629 VDD1.n50 VDD1.t8 85.8723
R630 VDD1.n36 VDD1.n34 49.6703
R631 VDD1.n73 VDD1.n71 49.6703
R632 VDD1.n77 VDD1.n75 39.3716
R633 VDD1.n49 VDD1.n48 16.3884
R634 VDD1.n12 VDD1.n11 16.3884
R635 VDD1.n15 VDD1.n10 12.8005
R636 VDD1.n52 VDD1.n47 12.8005
R637 VDD1.n16 VDD1.n8 12.0247
R638 VDD1.n53 VDD1.n45 12.0247
R639 VDD1.n20 VDD1.n19 11.249
R640 VDD1.n57 VDD1.n56 11.249
R641 VDD1.n23 VDD1.n6 10.4732
R642 VDD1.n60 VDD1.n43 10.4732
R643 VDD1.n24 VDD1.n4 9.69747
R644 VDD1.n61 VDD1.n41 9.69747
R645 VDD1.n34 VDD1.n33 9.45567
R646 VDD1.n71 VDD1.n70 9.45567
R647 VDD1.n33 VDD1.n32 9.3005
R648 VDD1.n2 VDD1.n1 9.3005
R649 VDD1.n27 VDD1.n26 9.3005
R650 VDD1.n25 VDD1.n24 9.3005
R651 VDD1.n6 VDD1.n5 9.3005
R652 VDD1.n19 VDD1.n18 9.3005
R653 VDD1.n17 VDD1.n16 9.3005
R654 VDD1.n10 VDD1.n9 9.3005
R655 VDD1.n39 VDD1.n38 9.3005
R656 VDD1.n64 VDD1.n63 9.3005
R657 VDD1.n62 VDD1.n61 9.3005
R658 VDD1.n43 VDD1.n42 9.3005
R659 VDD1.n56 VDD1.n55 9.3005
R660 VDD1.n54 VDD1.n53 9.3005
R661 VDD1.n47 VDD1.n46 9.3005
R662 VDD1.n70 VDD1.n69 9.3005
R663 VDD1.n28 VDD1.n27 8.92171
R664 VDD1.n65 VDD1.n64 8.92171
R665 VDD1.n31 VDD1.n2 8.14595
R666 VDD1.n68 VDD1.n39 8.14595
R667 VDD1.n32 VDD1.n0 7.3702
R668 VDD1.n69 VDD1.n37 7.3702
R669 VDD1.n34 VDD1.n0 6.59444
R670 VDD1.n71 VDD1.n37 6.59444
R671 VDD1.n32 VDD1.n31 5.81868
R672 VDD1.n69 VDD1.n68 5.81868
R673 VDD1.n28 VDD1.n2 5.04292
R674 VDD1.n65 VDD1.n39 5.04292
R675 VDD1.n76 VDD1.t6 4.87381
R676 VDD1.n76 VDD1.t0 4.87381
R677 VDD1.n35 VDD1.t5 4.87381
R678 VDD1.n35 VDD1.t4 4.87381
R679 VDD1.n74 VDD1.t7 4.87381
R680 VDD1.n74 VDD1.t2 4.87381
R681 VDD1.n72 VDD1.t1 4.87381
R682 VDD1.n72 VDD1.t9 4.87381
R683 VDD1.n27 VDD1.n4 4.26717
R684 VDD1.n64 VDD1.n41 4.26717
R685 VDD1.n11 VDD1.n9 3.71088
R686 VDD1.n48 VDD1.n46 3.71088
R687 VDD1.n24 VDD1.n23 3.49141
R688 VDD1.n61 VDD1.n60 3.49141
R689 VDD1.n20 VDD1.n6 2.71565
R690 VDD1.n57 VDD1.n43 2.71565
R691 VDD1.n19 VDD1.n8 1.93989
R692 VDD1.n56 VDD1.n45 1.93989
R693 VDD1 VDD1.n77 1.27421
R694 VDD1.n16 VDD1.n15 1.16414
R695 VDD1.n53 VDD1.n52 1.16414
R696 VDD1 VDD1.n36 0.502655
R697 VDD1.n75 VDD1.n73 0.389119
R698 VDD1.n12 VDD1.n10 0.388379
R699 VDD1.n49 VDD1.n47 0.388379
R700 VDD1.n33 VDD1.n1 0.155672
R701 VDD1.n26 VDD1.n1 0.155672
R702 VDD1.n26 VDD1.n25 0.155672
R703 VDD1.n25 VDD1.n5 0.155672
R704 VDD1.n18 VDD1.n5 0.155672
R705 VDD1.n18 VDD1.n17 0.155672
R706 VDD1.n17 VDD1.n9 0.155672
R707 VDD1.n54 VDD1.n46 0.155672
R708 VDD1.n55 VDD1.n54 0.155672
R709 VDD1.n55 VDD1.n42 0.155672
R710 VDD1.n62 VDD1.n42 0.155672
R711 VDD1.n63 VDD1.n62 0.155672
R712 VDD1.n63 VDD1.n38 0.155672
R713 VDD1.n70 VDD1.n38 0.155672
R714 B.n317 B.n316 585
R715 B.n315 B.n104 585
R716 B.n314 B.n313 585
R717 B.n312 B.n105 585
R718 B.n311 B.n310 585
R719 B.n309 B.n106 585
R720 B.n308 B.n307 585
R721 B.n306 B.n107 585
R722 B.n305 B.n304 585
R723 B.n303 B.n108 585
R724 B.n302 B.n301 585
R725 B.n300 B.n109 585
R726 B.n299 B.n298 585
R727 B.n297 B.n110 585
R728 B.n296 B.n295 585
R729 B.n294 B.n111 585
R730 B.n293 B.n292 585
R731 B.n291 B.n112 585
R732 B.n290 B.n289 585
R733 B.n288 B.n113 585
R734 B.n287 B.n286 585
R735 B.n285 B.n114 585
R736 B.n284 B.n283 585
R737 B.n282 B.n115 585
R738 B.n281 B.n280 585
R739 B.n279 B.n116 585
R740 B.n278 B.n277 585
R741 B.n273 B.n117 585
R742 B.n272 B.n271 585
R743 B.n270 B.n118 585
R744 B.n269 B.n268 585
R745 B.n267 B.n119 585
R746 B.n266 B.n265 585
R747 B.n264 B.n120 585
R748 B.n263 B.n262 585
R749 B.n260 B.n121 585
R750 B.n259 B.n258 585
R751 B.n257 B.n124 585
R752 B.n256 B.n255 585
R753 B.n254 B.n125 585
R754 B.n253 B.n252 585
R755 B.n251 B.n126 585
R756 B.n250 B.n249 585
R757 B.n248 B.n127 585
R758 B.n247 B.n246 585
R759 B.n245 B.n128 585
R760 B.n244 B.n243 585
R761 B.n242 B.n129 585
R762 B.n241 B.n240 585
R763 B.n239 B.n130 585
R764 B.n238 B.n237 585
R765 B.n236 B.n131 585
R766 B.n235 B.n234 585
R767 B.n233 B.n132 585
R768 B.n232 B.n231 585
R769 B.n230 B.n133 585
R770 B.n229 B.n228 585
R771 B.n227 B.n134 585
R772 B.n226 B.n225 585
R773 B.n224 B.n135 585
R774 B.n223 B.n222 585
R775 B.n318 B.n103 585
R776 B.n320 B.n319 585
R777 B.n321 B.n102 585
R778 B.n323 B.n322 585
R779 B.n324 B.n101 585
R780 B.n326 B.n325 585
R781 B.n327 B.n100 585
R782 B.n329 B.n328 585
R783 B.n330 B.n99 585
R784 B.n332 B.n331 585
R785 B.n333 B.n98 585
R786 B.n335 B.n334 585
R787 B.n336 B.n97 585
R788 B.n338 B.n337 585
R789 B.n339 B.n96 585
R790 B.n341 B.n340 585
R791 B.n342 B.n95 585
R792 B.n344 B.n343 585
R793 B.n345 B.n94 585
R794 B.n347 B.n346 585
R795 B.n348 B.n93 585
R796 B.n350 B.n349 585
R797 B.n351 B.n92 585
R798 B.n353 B.n352 585
R799 B.n354 B.n91 585
R800 B.n356 B.n355 585
R801 B.n357 B.n90 585
R802 B.n359 B.n358 585
R803 B.n360 B.n89 585
R804 B.n362 B.n361 585
R805 B.n363 B.n88 585
R806 B.n365 B.n364 585
R807 B.n366 B.n87 585
R808 B.n368 B.n367 585
R809 B.n369 B.n86 585
R810 B.n371 B.n370 585
R811 B.n372 B.n85 585
R812 B.n374 B.n373 585
R813 B.n375 B.n84 585
R814 B.n377 B.n376 585
R815 B.n378 B.n83 585
R816 B.n380 B.n379 585
R817 B.n381 B.n82 585
R818 B.n383 B.n382 585
R819 B.n384 B.n81 585
R820 B.n386 B.n385 585
R821 B.n387 B.n80 585
R822 B.n389 B.n388 585
R823 B.n390 B.n79 585
R824 B.n392 B.n391 585
R825 B.n393 B.n78 585
R826 B.n395 B.n394 585
R827 B.n396 B.n77 585
R828 B.n398 B.n397 585
R829 B.n399 B.n76 585
R830 B.n401 B.n400 585
R831 B.n402 B.n75 585
R832 B.n404 B.n403 585
R833 B.n405 B.n74 585
R834 B.n407 B.n406 585
R835 B.n408 B.n73 585
R836 B.n410 B.n409 585
R837 B.n411 B.n72 585
R838 B.n413 B.n412 585
R839 B.n414 B.n71 585
R840 B.n416 B.n415 585
R841 B.n417 B.n70 585
R842 B.n419 B.n418 585
R843 B.n420 B.n69 585
R844 B.n422 B.n421 585
R845 B.n423 B.n68 585
R846 B.n425 B.n424 585
R847 B.n426 B.n67 585
R848 B.n428 B.n427 585
R849 B.n429 B.n66 585
R850 B.n431 B.n430 585
R851 B.n432 B.n65 585
R852 B.n434 B.n433 585
R853 B.n435 B.n64 585
R854 B.n437 B.n436 585
R855 B.n438 B.n63 585
R856 B.n440 B.n439 585
R857 B.n441 B.n62 585
R858 B.n443 B.n442 585
R859 B.n444 B.n61 585
R860 B.n446 B.n445 585
R861 B.n447 B.n60 585
R862 B.n449 B.n448 585
R863 B.n450 B.n59 585
R864 B.n452 B.n451 585
R865 B.n545 B.n24 585
R866 B.n544 B.n543 585
R867 B.n542 B.n25 585
R868 B.n541 B.n540 585
R869 B.n539 B.n26 585
R870 B.n538 B.n537 585
R871 B.n536 B.n27 585
R872 B.n535 B.n534 585
R873 B.n533 B.n28 585
R874 B.n532 B.n531 585
R875 B.n530 B.n29 585
R876 B.n529 B.n528 585
R877 B.n527 B.n30 585
R878 B.n526 B.n525 585
R879 B.n524 B.n31 585
R880 B.n523 B.n522 585
R881 B.n521 B.n32 585
R882 B.n520 B.n519 585
R883 B.n518 B.n33 585
R884 B.n517 B.n516 585
R885 B.n515 B.n34 585
R886 B.n514 B.n513 585
R887 B.n512 B.n35 585
R888 B.n511 B.n510 585
R889 B.n509 B.n36 585
R890 B.n508 B.n507 585
R891 B.n505 B.n37 585
R892 B.n504 B.n503 585
R893 B.n502 B.n40 585
R894 B.n501 B.n500 585
R895 B.n499 B.n41 585
R896 B.n498 B.n497 585
R897 B.n496 B.n42 585
R898 B.n495 B.n494 585
R899 B.n493 B.n43 585
R900 B.n491 B.n490 585
R901 B.n489 B.n46 585
R902 B.n488 B.n487 585
R903 B.n486 B.n47 585
R904 B.n485 B.n484 585
R905 B.n483 B.n48 585
R906 B.n482 B.n481 585
R907 B.n480 B.n49 585
R908 B.n479 B.n478 585
R909 B.n477 B.n50 585
R910 B.n476 B.n475 585
R911 B.n474 B.n51 585
R912 B.n473 B.n472 585
R913 B.n471 B.n52 585
R914 B.n470 B.n469 585
R915 B.n468 B.n53 585
R916 B.n467 B.n466 585
R917 B.n465 B.n54 585
R918 B.n464 B.n463 585
R919 B.n462 B.n55 585
R920 B.n461 B.n460 585
R921 B.n459 B.n56 585
R922 B.n458 B.n457 585
R923 B.n456 B.n57 585
R924 B.n455 B.n454 585
R925 B.n453 B.n58 585
R926 B.n547 B.n546 585
R927 B.n548 B.n23 585
R928 B.n550 B.n549 585
R929 B.n551 B.n22 585
R930 B.n553 B.n552 585
R931 B.n554 B.n21 585
R932 B.n556 B.n555 585
R933 B.n557 B.n20 585
R934 B.n559 B.n558 585
R935 B.n560 B.n19 585
R936 B.n562 B.n561 585
R937 B.n563 B.n18 585
R938 B.n565 B.n564 585
R939 B.n566 B.n17 585
R940 B.n568 B.n567 585
R941 B.n569 B.n16 585
R942 B.n571 B.n570 585
R943 B.n572 B.n15 585
R944 B.n574 B.n573 585
R945 B.n575 B.n14 585
R946 B.n577 B.n576 585
R947 B.n578 B.n13 585
R948 B.n580 B.n579 585
R949 B.n581 B.n12 585
R950 B.n583 B.n582 585
R951 B.n584 B.n11 585
R952 B.n586 B.n585 585
R953 B.n587 B.n10 585
R954 B.n589 B.n588 585
R955 B.n590 B.n9 585
R956 B.n592 B.n591 585
R957 B.n593 B.n8 585
R958 B.n595 B.n594 585
R959 B.n596 B.n7 585
R960 B.n598 B.n597 585
R961 B.n599 B.n6 585
R962 B.n601 B.n600 585
R963 B.n602 B.n5 585
R964 B.n604 B.n603 585
R965 B.n605 B.n4 585
R966 B.n607 B.n606 585
R967 B.n608 B.n3 585
R968 B.n610 B.n609 585
R969 B.n611 B.n0 585
R970 B.n2 B.n1 585
R971 B.n158 B.n157 585
R972 B.n160 B.n159 585
R973 B.n161 B.n156 585
R974 B.n163 B.n162 585