* NGSPICE file created from opamp_sample_0004.ext - technology: sky130A

.subckt opamp_sample_0004 GND VOUT VDD VN VP CS_BIAS DIFFPAIR_BIAS
X0 a_n18640_8567.t19 a_n7837_10186.t28 a_n5326_8245.t15 VDD.t123 sky130_fd_pr__pfet_01v8 ad=1.6995 pd=5.81 as=1.6995 ps=5.81 w=5.15 l=3.71
X1 VDD.t157 a_n7837_10186.t29 a_n5326_8245.t12 VDD.t156 sky130_fd_pr__pfet_01v8 ad=1.6995 pd=5.81 as=1.6995 ps=5.81 w=5.15 l=3.71
X2 GND.t266 CS_BIAS.t32 VOUT.t10 GND.t171 sky130_fd_pr__nfet_01v8 ad=2.0088 pd=7.02 as=0.9207 ps=3.45 w=2.79 l=5.03
X3 GND.t154 GND.t151 GND.t153 GND.t152 sky130_fd_pr__nfet_01v8 ad=3.492 pd=11.14 as=0 ps=0 w=4.85 l=2.45
X4 CS_BIAS.t19 CS_BIAS.t18 GND.t265 GND.t181 sky130_fd_pr__nfet_01v8 ad=0.9207 pd=3.45 as=2.0088 ps=7.02 w=2.79 l=5.03
X5 a_n7837_10186.t8 VP.t6 a_n7336_n129.t20 GND.t3 sky130_fd_pr__nfet_01v8 ad=1.7952 pd=6.1 as=1.7952 ps=6.1 w=5.44 l=5.27
X6 VDD.t69 VDD.t67 VDD.t68 VDD.t10 sky130_fd_pr__pfet_01v8 ad=3.4992 pd=11.16 as=0 ps=0 w=4.86 l=5.24
X7 GND.t150 GND.t148 VP.t5 GND.t149 sky130_fd_pr__nfet_01v8 ad=0.165 pd=1.33 as=0.165 ps=1.33 w=1 l=0.5
X8 a_n18640_8567.t2 VN.t6 a_n7336_n129.t2 GND.t4 sky130_fd_pr__nfet_01v8 ad=1.7952 pd=6.1 as=3.9168 ps=12.32 w=5.44 l=5.27
X9 VOUT.t116 a_n5326_8245.t0 sky130_fd_pr__cap_mim_m3_1 l=14.74 w=14.15
X10 GND.t147 GND.t145 GND.t146 GND.t34 sky130_fd_pr__nfet_01v8 ad=2.0088 pd=7.02 as=0 ps=0 w=2.79 l=5.03
X11 VDD.t66 VDD.t64 VDD.t65 VDD.t10 sky130_fd_pr__pfet_01v8 ad=3.4992 pd=11.16 as=0 ps=0 w=4.86 l=5.24
X12 GND.t264 CS_BIAS.t33 VOUT.t51 GND.t161 sky130_fd_pr__nfet_01v8 ad=0.9207 pd=3.45 as=0.9207 ps=3.45 w=2.79 l=5.03
X13 a_n7336_n129.t8 DIFFPAIR_BIAS.t8 GND.t14 GND.t13 sky130_fd_pr__nfet_01v8 ad=3.492 pd=11.14 as=3.492 ps=11.14 w=4.85 l=2.45
X14 VOUT.t50 CS_BIAS.t34 GND.t263 GND.t167 sky130_fd_pr__nfet_01v8 ad=0.9207 pd=3.45 as=0.9207 ps=3.45 w=2.79 l=5.03
X15 VOUT.t49 CS_BIAS.t35 GND.t262 GND.t155 sky130_fd_pr__nfet_01v8 ad=0.9207 pd=3.45 as=0.9207 ps=3.45 w=2.79 l=5.03
X16 VOUT.t48 CS_BIAS.t36 GND.t261 GND.t167 sky130_fd_pr__nfet_01v8 ad=0.9207 pd=3.45 as=0.9207 ps=3.45 w=2.79 l=5.03
X17 a_n7336_n129.t19 VP.t7 a_n7837_10186.t9 GND.t267 sky130_fd_pr__nfet_01v8 ad=1.7952 pd=6.1 as=1.7952 ps=6.1 w=5.44 l=5.27
X18 a_n7837_10186.t1 VP.t8 a_n7336_n129.t18 GND.t9 sky130_fd_pr__nfet_01v8 ad=1.7952 pd=6.1 as=1.7952 ps=6.1 w=5.44 l=5.27
X19 GND.t144 GND.t142 GND.t143 GND.t97 sky130_fd_pr__nfet_01v8 ad=3.9168 pd=12.32 as=0 ps=0 w=5.44 l=5.27
X20 GND.t260 CS_BIAS.t37 VOUT.t47 GND.t190 sky130_fd_pr__nfet_01v8 ad=0.9207 pd=3.45 as=0.9207 ps=3.45 w=2.79 l=5.03
X21 CS_BIAS.t17 CS_BIAS.t16 GND.t259 GND.t163 sky130_fd_pr__nfet_01v8 ad=0.9207 pd=3.45 as=0.9207 ps=3.45 w=2.79 l=5.03
X22 GND.t141 GND.t139 GND.t140 GND.t22 sky130_fd_pr__nfet_01v8 ad=2.0088 pd=7.02 as=0 ps=0 w=2.79 l=5.03
X23 GND.t258 CS_BIAS.t14 CS_BIAS.t15 GND.t161 sky130_fd_pr__nfet_01v8 ad=0.9207 pd=3.45 as=0.9207 ps=3.45 w=2.79 l=5.03
X24 GND.t257 CS_BIAS.t38 VOUT.t46 GND.t187 sky130_fd_pr__nfet_01v8 ad=2.0088 pd=7.02 as=0.9207 ps=3.45 w=2.79 l=5.03
X25 a_n7336_n129.t7 DIFFPAIR_BIAS.t9 GND.t12 GND.t11 sky130_fd_pr__nfet_01v8 ad=3.492 pd=11.14 as=3.492 ps=11.14 w=4.85 l=2.45
X26 VOUT.t45 CS_BIAS.t39 GND.t256 GND.t181 sky130_fd_pr__nfet_01v8 ad=0.9207 pd=3.45 as=2.0088 ps=7.02 w=2.79 l=5.03
X27 a_8109_10383# a_8109_10383# a_8109_10383# VDD.t1 sky130_fd_pr__pfet_01v8 ad=3.708 pd=11.74 as=7.416 ps=23.48 w=5.15 l=3.71
X28 GND.t138 GND.t136 GND.t137 GND.t45 sky130_fd_pr__nfet_01v8 ad=2.0088 pd=7.02 as=0 ps=0 w=2.79 l=5.03
X29 GND.t135 GND.t133 GND.t134 GND.t45 sky130_fd_pr__nfet_01v8 ad=2.0088 pd=7.02 as=0 ps=0 w=2.79 l=5.03
X30 VDD.t63 VDD.t61 VDD.t62 VDD.t58 sky130_fd_pr__pfet_01v8 ad=3.708 pd=11.74 as=0 ps=0 w=5.15 l=3.71
X31 GND.t132 GND.t130 GND.t131 GND.t30 sky130_fd_pr__nfet_01v8 ad=2.0088 pd=7.02 as=0 ps=0 w=2.79 l=5.03
X32 GND.t255 CS_BIAS.t40 VOUT.t44 GND.t169 sky130_fd_pr__nfet_01v8 ad=0.9207 pd=3.45 as=0.9207 ps=3.45 w=2.79 l=5.03
X33 a_n5326_8245.t11 a_n7837_10186.t30 VDD.t155 VDD.t154 sky130_fd_pr__pfet_01v8 ad=1.6995 pd=5.81 as=1.6995 ps=5.81 w=5.15 l=3.71
X34 VOUT.t43 CS_BIAS.t41 GND.t254 GND.t159 sky130_fd_pr__nfet_01v8 ad=0.9207 pd=3.45 as=0.9207 ps=3.45 w=2.79 l=5.03
X35 VDD.t153 a_n7837_10186.t31 a_n5326_8245.t3 VDD.t152 sky130_fd_pr__pfet_01v8 ad=1.6995 pd=5.81 as=3.708 ps=11.74 w=5.15 l=3.71
X36 a_n7837_10186.t22 a_n7837_10186.t21 a_n7981_10383.t15 VDD.t143 sky130_fd_pr__pfet_01v8 ad=3.708 pd=11.74 as=1.6995 ps=5.81 w=5.15 l=3.71
X37 GND.t129 GND.t127 VN.t5 GND.t128 sky130_fd_pr__nfet_01v8 ad=0.165 pd=1.33 as=0.165 ps=1.33 w=1 l=0.5
X38 GND.t126 GND.t124 VP.t4 GND.t125 sky130_fd_pr__nfet_01v8 ad=0.165 pd=1.33 as=0.165 ps=1.33 w=1 l=0.5
X39 GND.t123 GND.t121 GND.t122 GND.t34 sky130_fd_pr__nfet_01v8 ad=2.0088 pd=7.02 as=0 ps=0 w=2.79 l=5.03
X40 a_n7981_10383.t7 a_n7837_10186.t32 VDD.t151 VDD.t150 sky130_fd_pr__pfet_01v8 ad=1.6995 pd=5.81 as=1.6995 ps=5.81 w=5.15 l=3.71
X41 VOUT.t115 a_n18640_8567.t20 VDD.t117 VDD.t110 sky130_fd_pr__pfet_01v8 ad=1.6038 pd=5.52 as=1.6038 ps=5.52 w=4.86 l=5.24
X42 GND.t253 CS_BIAS.t42 VOUT.t42 GND.t187 sky130_fd_pr__nfet_01v8 ad=2.0088 pd=7.02 as=0.9207 ps=3.45 w=2.79 l=5.03
X43 VOUT.t114 a_n18640_8567.t21 VDD.t116 VDD.t110 sky130_fd_pr__pfet_01v8 ad=1.6038 pd=5.52 as=1.6038 ps=5.52 w=4.86 l=5.24
X44 GND.t252 CS_BIAS.t43 VOUT.t41 GND.t175 sky130_fd_pr__nfet_01v8 ad=0.9207 pd=3.45 as=0.9207 ps=3.45 w=2.79 l=5.03
X45 a_n7336_n129.t4 VN.t7 a_n18640_8567.t4 GND.t7 sky130_fd_pr__nfet_01v8 ad=1.7952 pd=6.1 as=1.7952 ps=6.1 w=5.44 l=5.27
X46 VOUT.t40 CS_BIAS.t44 GND.t251 GND.t194 sky130_fd_pr__nfet_01v8 ad=0.9207 pd=3.45 as=0.9207 ps=3.45 w=2.79 l=5.03
X47 VDD.t60 VDD.t57 VDD.t59 VDD.t58 sky130_fd_pr__pfet_01v8 ad=3.708 pd=11.74 as=0 ps=0 w=5.15 l=3.71
X48 GND.t250 CS_BIAS.t45 VOUT.t39 GND.t165 sky130_fd_pr__nfet_01v8 ad=0.9207 pd=3.45 as=0.9207 ps=3.45 w=2.79 l=5.03
X49 VOUT.t37 CS_BIAS.t46 GND.t247 GND.t163 sky130_fd_pr__nfet_01v8 ad=0.9207 pd=3.45 as=0.9207 ps=3.45 w=2.79 l=5.03
X50 GND.t249 CS_BIAS.t47 VOUT.t38 GND.t190 sky130_fd_pr__nfet_01v8 ad=0.9207 pd=3.45 as=0.9207 ps=3.45 w=2.79 l=5.03
X51 GND.t248 CS_BIAS.t12 CS_BIAS.t13 GND.t169 sky130_fd_pr__nfet_01v8 ad=0.9207 pd=3.45 as=0.9207 ps=3.45 w=2.79 l=5.03
X52 GND.t246 CS_BIAS.t48 VOUT.t36 GND.t177 sky130_fd_pr__nfet_01v8 ad=0.9207 pd=3.45 as=0.9207 ps=3.45 w=2.79 l=5.03
X53 CS_BIAS.t11 CS_BIAS.t10 GND.t245 GND.t194 sky130_fd_pr__nfet_01v8 ad=0.9207 pd=3.45 as=0.9207 ps=3.45 w=2.79 l=5.03
X54 GND.t244 CS_BIAS.t49 VOUT.t35 GND.t165 sky130_fd_pr__nfet_01v8 ad=0.9207 pd=3.45 as=0.9207 ps=3.45 w=2.79 l=5.03
X55 GND.t235 CS_BIAS.t50 VOUT.t27 GND.t171 sky130_fd_pr__nfet_01v8 ad=2.0088 pd=7.02 as=0.9207 ps=3.45 w=2.79 l=5.03
X56 GND.t243 CS_BIAS.t51 VOUT.t34 GND.t161 sky130_fd_pr__nfet_01v8 ad=0.9207 pd=3.45 as=0.9207 ps=3.45 w=2.79 l=5.03
X57 GND.t120 GND.t118 GND.t119 GND.t30 sky130_fd_pr__nfet_01v8 ad=2.0088 pd=7.02 as=0 ps=0 w=2.79 l=5.03
X58 VOUT.t33 CS_BIAS.t52 GND.t242 GND.t159 sky130_fd_pr__nfet_01v8 ad=0.9207 pd=3.45 as=0.9207 ps=3.45 w=2.79 l=5.03
X59 VOUT.t32 CS_BIAS.t53 GND.t241 GND.t157 sky130_fd_pr__nfet_01v8 ad=0.9207 pd=3.45 as=2.0088 ps=7.02 w=2.79 l=5.03
X60 VOUT.t31 CS_BIAS.t54 GND.t240 GND.t173 sky130_fd_pr__nfet_01v8 ad=0.9207 pd=3.45 as=0.9207 ps=3.45 w=2.79 l=5.03
X61 VDD.t56 VDD.t54 VDD.t55 VDD.t41 sky130_fd_pr__pfet_01v8 ad=3.708 pd=11.74 as=0 ps=0 w=5.15 l=3.71
X62 GND.t117 GND.t115 GND.t116 GND.t22 sky130_fd_pr__nfet_01v8 ad=2.0088 pd=7.02 as=0 ps=0 w=2.79 l=5.03
X63 VDD.t53 VDD.t51 VDD.t52 VDD.t48 sky130_fd_pr__pfet_01v8 ad=3.708 pd=11.74 as=0 ps=0 w=5.15 l=3.71
X64 VDD.t149 a_n7837_10186.t33 a_n7981_10383.t6 VDD.t148 sky130_fd_pr__pfet_01v8 ad=1.6995 pd=5.81 as=1.6995 ps=5.81 w=5.15 l=3.71
X65 VOUT.t117 a_n5326_8245.t0 sky130_fd_pr__cap_mim_m3_1 l=14.74 w=14.15
X66 a_n5326_8245.t4 a_n7837_10186.t34 VDD.t147 VDD.t146 sky130_fd_pr__pfet_01v8 ad=3.708 pd=11.74 as=1.6995 ps=5.81 w=5.15 l=3.71
X67 GND.t114 GND.t112 VN.t4 GND.t113 sky130_fd_pr__nfet_01v8 ad=0.165 pd=1.33 as=0.165 ps=1.33 w=1 l=0.5
X68 GND.t239 CS_BIAS.t55 VOUT.t30 GND.t171 sky130_fd_pr__nfet_01v8 ad=2.0088 pd=7.02 as=0.9207 ps=3.45 w=2.79 l=5.03
X69 GND.t238 CS_BIAS.t56 VOUT.t29 GND.t171 sky130_fd_pr__nfet_01v8 ad=2.0088 pd=7.02 as=0.9207 ps=3.45 w=2.79 l=5.03
X70 a_n7336_n129.t17 VP.t9 a_n7837_10186.t6 GND.t8 sky130_fd_pr__nfet_01v8 ad=1.7952 pd=6.1 as=1.7952 ps=6.1 w=5.44 l=5.27
X71 a_n7837_10186.t3 VP.t10 a_n7336_n129.t16 GND.t0 sky130_fd_pr__nfet_01v8 ad=1.7952 pd=6.1 as=1.7952 ps=6.1 w=5.44 l=5.27
X72 DIFFPAIR_BIAS.t7 DIFFPAIR_BIAS.t6 GND.t19 GND.t18 sky130_fd_pr__nfet_01v8 ad=3.492 pd=11.14 as=3.492 ps=11.14 w=4.85 l=2.45
X73 VOUT.t113 a_n18640_8567.t22 VDD.t115 VDD.t99 sky130_fd_pr__pfet_01v8 ad=1.6038 pd=5.52 as=3.4992 ps=11.16 w=4.86 l=5.24
X74 VOUT.t112 a_n18640_8567.t23 VDD.t114 VDD.t99 sky130_fd_pr__pfet_01v8 ad=1.6038 pd=5.52 as=3.4992 ps=11.16 w=4.86 l=5.24
X75 a_n7981_10383.t14 a_n7837_10186.t11 a_n7837_10186.t12 VDD.t142 sky130_fd_pr__pfet_01v8 ad=1.6995 pd=5.81 as=3.708 ps=11.74 w=5.15 l=3.71
X76 CS_BIAS.t9 CS_BIAS.t8 GND.t237 GND.t173 sky130_fd_pr__nfet_01v8 ad=0.9207 pd=3.45 as=0.9207 ps=3.45 w=2.79 l=5.03
X77 a_n18640_8567.t18 a_n7837_10186.t35 a_n5326_8245.t5 VDD.t139 sky130_fd_pr__pfet_01v8 ad=1.6995 pd=5.81 as=3.708 ps=11.74 w=5.15 l=3.71
X78 VOUT.t26 CS_BIAS.t57 GND.t234 GND.t159 sky130_fd_pr__nfet_01v8 ad=0.9207 pd=3.45 as=0.9207 ps=3.45 w=2.79 l=5.03
X79 GND.t236 CS_BIAS.t58 VOUT.t28 GND.t190 sky130_fd_pr__nfet_01v8 ad=0.9207 pd=3.45 as=0.9207 ps=3.45 w=2.79 l=5.03
X80 VDD.t113 a_n18640_8567.t24 VOUT.t111 VDD.t81 sky130_fd_pr__pfet_01v8 ad=3.4992 pd=11.16 as=1.6038 ps=5.52 w=4.86 l=5.24
X81 VDD.t145 a_n7837_10186.t36 a_n7981_10383.t5 VDD.t144 sky130_fd_pr__pfet_01v8 ad=1.6995 pd=5.81 as=3.708 ps=11.74 w=5.15 l=3.71
X82 CS_BIAS.t7 CS_BIAS.t6 GND.t233 GND.t157 sky130_fd_pr__nfet_01v8 ad=0.9207 pd=3.45 as=2.0088 ps=7.02 w=2.79 l=5.03
X83 VDD.t112 a_n18640_8567.t25 VOUT.t110 VDD.t81 sky130_fd_pr__pfet_01v8 ad=3.4992 pd=11.16 as=1.6038 ps=5.52 w=4.86 l=5.24
X84 GND.t111 GND.t109 GND.t110 GND.t45 sky130_fd_pr__nfet_01v8 ad=2.0088 pd=7.02 as=0 ps=0 w=2.79 l=5.03
X85 GND.t108 GND.t106 GND.t107 GND.t26 sky130_fd_pr__nfet_01v8 ad=3.9168 pd=12.32 as=0 ps=0 w=5.44 l=5.27
X86 VDD.t50 VDD.t47 VDD.t49 VDD.t48 sky130_fd_pr__pfet_01v8 ad=3.708 pd=11.74 as=0 ps=0 w=5.15 l=3.71
X87 VOUT.t25 CS_BIAS.t59 GND.t232 GND.t155 sky130_fd_pr__nfet_01v8 ad=0.9207 pd=3.45 as=0.9207 ps=3.45 w=2.79 l=5.03
X88 a_n9139_10383# a_n9139_10383# a_n9139_10383# VDD.t0 sky130_fd_pr__pfet_01v8 ad=3.708 pd=11.74 as=7.416 ps=23.48 w=5.15 l=3.71
X89 GND.t105 GND.t103 VP.t3 GND.t104 sky130_fd_pr__nfet_01v8 ad=0.165 pd=1.33 as=0.39 ps=2.78 w=1 l=0.5
X90 VOUT.t24 CS_BIAS.t60 GND.t231 GND.t181 sky130_fd_pr__nfet_01v8 ad=0.9207 pd=3.45 as=2.0088 ps=7.02 w=2.79 l=5.03
X91 a_n7837_10186.t0 VP.t11 a_n7336_n129.t15 GND.t6 sky130_fd_pr__nfet_01v8 ad=1.7952 pd=6.1 as=3.9168 ps=12.32 w=5.44 l=5.27
X92 a_n7336_n129.t14 VP.t12 a_n7837_10186.t27 GND.t5 sky130_fd_pr__nfet_01v8 ad=1.7952 pd=6.1 as=1.7952 ps=6.1 w=5.44 l=5.27
X93 VOUT.t23 CS_BIAS.t61 GND.t230 GND.t181 sky130_fd_pr__nfet_01v8 ad=0.9207 pd=3.45 as=2.0088 ps=7.02 w=2.79 l=5.03
X94 a_n5326_8245.t13 a_n7837_10186.t37 a_n18640_8567.t17 VDD.t143 sky130_fd_pr__pfet_01v8 ad=3.708 pd=11.74 as=1.6995 ps=5.81 w=5.15 l=3.71
X95 VOUT.t109 a_n18640_8567.t26 VDD.t111 VDD.t110 sky130_fd_pr__pfet_01v8 ad=1.6038 pd=5.52 as=1.6038 ps=5.52 w=4.86 l=5.24
X96 GND.t102 GND.t100 GND.t101 GND.t34 sky130_fd_pr__nfet_01v8 ad=2.0088 pd=7.02 as=0 ps=0 w=2.79 l=5.03
X97 VDD.t107 a_n18640_8567.t27 VOUT.t108 VDD.t97 sky130_fd_pr__pfet_01v8 ad=1.6038 pd=5.52 as=1.6038 ps=5.52 w=4.86 l=5.24
X98 VOUT.t22 CS_BIAS.t62 GND.t229 GND.t159 sky130_fd_pr__nfet_01v8 ad=0.9207 pd=3.45 as=0.9207 ps=3.45 w=2.79 l=5.03
X99 VOUT.t21 CS_BIAS.t63 GND.t228 GND.t194 sky130_fd_pr__nfet_01v8 ad=0.9207 pd=3.45 as=0.9207 ps=3.45 w=2.79 l=5.03
X100 a_n18640_8567.t16 a_n7837_10186.t38 a_n5326_8245.t10 VDD.t142 sky130_fd_pr__pfet_01v8 ad=1.6995 pd=5.81 as=3.708 ps=11.74 w=5.15 l=3.71
X101 VOUT.t107 a_n18640_8567.t28 VDD.t109 VDD.t85 sky130_fd_pr__pfet_01v8 ad=1.6038 pd=5.52 as=1.6038 ps=5.52 w=4.86 l=5.24
X102 a_n18640_8567.t7 VN.t8 a_n7336_n129.t21 GND.t20 sky130_fd_pr__nfet_01v8 ad=1.7952 pd=6.1 as=1.7952 ps=6.1 w=5.44 l=5.27
X103 VOUT.t118 a_n5326_8245.t0 sky130_fd_pr__cap_mim_m3_1 l=14.74 w=14.15
X104 VOUT.t20 CS_BIAS.t64 GND.t227 GND.t163 sky130_fd_pr__nfet_01v8 ad=0.9207 pd=3.45 as=0.9207 ps=3.45 w=2.79 l=5.03
X105 GND.t226 CS_BIAS.t65 VOUT.t19 GND.t169 sky130_fd_pr__nfet_01v8 ad=0.9207 pd=3.45 as=0.9207 ps=3.45 w=2.79 l=5.03
X106 a_n5326_8245.t6 a_n7837_10186.t39 a_n18640_8567.t15 VDD.t124 sky130_fd_pr__pfet_01v8 ad=1.6995 pd=5.81 as=1.6995 ps=5.81 w=5.15 l=3.71
X107 GND.t92 GND.t90 VN.t3 GND.t91 sky130_fd_pr__nfet_01v8 ad=0.165 pd=1.33 as=0.39 ps=2.78 w=1 l=0.5
X108 GND.t95 GND.t93 GND.t94 GND.t30 sky130_fd_pr__nfet_01v8 ad=2.0088 pd=7.02 as=0 ps=0 w=2.79 l=5.03
X109 a_n7837_10186.t4 VP.t13 a_n7336_n129.t13 GND.t4 sky130_fd_pr__nfet_01v8 ad=1.7952 pd=6.1 as=3.9168 ps=12.32 w=5.44 l=5.27
X110 GND.t225 CS_BIAS.t66 VOUT.t18 GND.t187 sky130_fd_pr__nfet_01v8 ad=2.0088 pd=7.02 as=0.9207 ps=3.45 w=2.79 l=5.03
X111 GND.t224 CS_BIAS.t67 VOUT.t17 GND.t161 sky130_fd_pr__nfet_01v8 ad=0.9207 pd=3.45 as=0.9207 ps=3.45 w=2.79 l=5.03
X112 GND.t223 CS_BIAS.t68 VOUT.t16 GND.t175 sky130_fd_pr__nfet_01v8 ad=0.9207 pd=3.45 as=0.9207 ps=3.45 w=2.79 l=5.03
X113 VOUT.t15 CS_BIAS.t69 GND.t222 GND.t167 sky130_fd_pr__nfet_01v8 ad=0.9207 pd=3.45 as=0.9207 ps=3.45 w=2.79 l=5.03
X114 VDD.t108 a_n18640_8567.t29 VOUT.t106 VDD.t103 sky130_fd_pr__pfet_01v8 ad=1.6038 pd=5.52 as=1.6038 ps=5.52 w=4.86 l=5.24
X115 VDD.t106 a_n18640_8567.t30 VOUT.t105 VDD.t97 sky130_fd_pr__pfet_01v8 ad=1.6038 pd=5.52 as=1.6038 ps=5.52 w=4.86 l=5.24
X116 a_n18640_8567.t11 VN.t9 a_n7336_n129.t25 GND.t9 sky130_fd_pr__nfet_01v8 ad=1.7952 pd=6.1 as=1.7952 ps=6.1 w=5.44 l=5.27
X117 VOUT.t14 CS_BIAS.t70 GND.t221 GND.t194 sky130_fd_pr__nfet_01v8 ad=0.9207 pd=3.45 as=0.9207 ps=3.45 w=2.79 l=5.03
X118 VDD.t105 a_n18640_8567.t31 VOUT.t104 VDD.t103 sky130_fd_pr__pfet_01v8 ad=1.6038 pd=5.52 as=1.6038 ps=5.52 w=4.86 l=5.24
X119 VDD.t98 a_n18640_8567.t32 VOUT.t103 VDD.t97 sky130_fd_pr__pfet_01v8 ad=1.6038 pd=5.52 as=1.6038 ps=5.52 w=4.86 l=5.24
X120 VDD.t104 a_n18640_8567.t33 VOUT.t102 VDD.t103 sky130_fd_pr__pfet_01v8 ad=1.6038 pd=5.52 as=1.6038 ps=5.52 w=4.86 l=5.24
X121 GND.t99 GND.t96 GND.t98 GND.t97 sky130_fd_pr__nfet_01v8 ad=3.9168 pd=12.32 as=0 ps=0 w=5.44 l=5.27
X122 VN.t2 GND.t87 GND.t89 GND.t88 sky130_fd_pr__nfet_01v8 ad=0.165 pd=1.33 as=0.165 ps=1.33 w=1 l=0.5
X123 VOUT.t13 CS_BIAS.t71 GND.t220 GND.t181 sky130_fd_pr__nfet_01v8 ad=0.9207 pd=3.45 as=2.0088 ps=7.02 w=2.79 l=5.03
X124 VOUT.t9 CS_BIAS.t72 GND.t164 GND.t163 sky130_fd_pr__nfet_01v8 ad=0.9207 pd=3.45 as=0.9207 ps=3.45 w=2.79 l=5.03
X125 GND.t219 CS_BIAS.t73 VOUT.t12 GND.t190 sky130_fd_pr__nfet_01v8 ad=0.9207 pd=3.45 as=0.9207 ps=3.45 w=2.79 l=5.03
X126 VOUT.t101 a_n18640_8567.t34 VDD.t102 VDD.t83 sky130_fd_pr__pfet_01v8 ad=1.6038 pd=5.52 as=1.6038 ps=5.52 w=4.86 l=5.24
X127 a_n7336_n129.t22 VN.t10 a_n18640_8567.t8 GND.t17 sky130_fd_pr__nfet_01v8 ad=3.9168 pd=12.32 as=1.7952 ps=6.1 w=5.44 l=5.27
X128 a_n5326_8245.t9 a_n7837_10186.t40 a_n18640_8567.t14 VDD.t136 sky130_fd_pr__pfet_01v8 ad=3.708 pd=11.74 as=1.6995 ps=5.81 w=5.15 l=3.71
X129 GND.t218 CS_BIAS.t74 VOUT.t11 GND.t177 sky130_fd_pr__nfet_01v8 ad=0.9207 pd=3.45 as=0.9207 ps=3.45 w=2.79 l=5.03
X130 VDD.t141 a_n7837_10186.t41 a_n5326_8245.t2 VDD.t140 sky130_fd_pr__pfet_01v8 ad=1.6995 pd=5.81 as=1.6995 ps=5.81 w=5.15 l=3.71
X131 GND.t86 GND.t84 GND.t85 GND.t34 sky130_fd_pr__nfet_01v8 ad=2.0088 pd=7.02 as=0 ps=0 w=2.79 l=5.03
X132 GND.t217 CS_BIAS.t75 VOUT.t61 GND.t187 sky130_fd_pr__nfet_01v8 ad=2.0088 pd=7.02 as=0.9207 ps=3.45 w=2.79 l=5.03
X133 VDD.t101 a_n18640_8567.t35 VOUT.t100 VDD.t70 sky130_fd_pr__pfet_01v8 ad=1.6038 pd=5.52 as=1.6038 ps=5.52 w=4.86 l=5.24
X134 VOUT.t56 CS_BIAS.t76 GND.t211 GND.t155 sky130_fd_pr__nfet_01v8 ad=0.9207 pd=3.45 as=0.9207 ps=3.45 w=2.79 l=5.03
X135 a_n7837_10186.t24 a_n7837_10186.t23 a_n7981_10383.t13 VDD.t127 sky130_fd_pr__pfet_01v8 ad=1.6995 pd=5.81 as=1.6995 ps=5.81 w=5.15 l=3.71
X136 GND.t216 CS_BIAS.t77 VOUT.t60 GND.t161 sky130_fd_pr__nfet_01v8 ad=0.9207 pd=3.45 as=0.9207 ps=3.45 w=2.79 l=5.03
X137 a_n7981_10383.t12 a_n7837_10186.t25 a_n7837_10186.t26 VDD.t139 sky130_fd_pr__pfet_01v8 ad=1.6995 pd=5.81 as=3.708 ps=11.74 w=5.15 l=3.71
X138 VOUT.t59 CS_BIAS.t78 GND.t215 GND.t173 sky130_fd_pr__nfet_01v8 ad=0.9207 pd=3.45 as=0.9207 ps=3.45 w=2.79 l=5.03
X139 GND.t83 GND.t81 GND.t82 GND.t22 sky130_fd_pr__nfet_01v8 ad=2.0088 pd=7.02 as=0 ps=0 w=2.79 l=5.03
X140 VOUT.t99 a_n18640_8567.t36 VDD.t100 VDD.t99 sky130_fd_pr__pfet_01v8 ad=1.6038 pd=5.52 as=3.4992 ps=11.16 w=4.86 l=5.24
X141 DIFFPAIR_BIAS.t5 DIFFPAIR_BIAS.t4 GND.t2 GND.t1 sky130_fd_pr__nfet_01v8 ad=3.492 pd=11.14 as=3.492 ps=11.14 w=4.85 l=2.45
X142 VDD.t138 a_n7837_10186.t42 a_n5326_8245.t1 VDD.t137 sky130_fd_pr__pfet_01v8 ad=1.6995 pd=5.81 as=3.708 ps=11.74 w=5.15 l=3.71
X143 VOUT.t119 a_n5326_8245.t0 sky130_fd_pr__cap_mim_m3_1 l=14.74 w=14.15
X144 a_n7837_10186.t18 a_n7837_10186.t17 a_n7981_10383.t11 VDD.t136 sky130_fd_pr__pfet_01v8 ad=3.708 pd=11.74 as=1.6995 ps=5.81 w=5.15 l=3.71
X145 a_n7981_10383.t4 a_n7837_10186.t43 VDD.t135 VDD.t134 sky130_fd_pr__pfet_01v8 ad=3.708 pd=11.74 as=1.6995 ps=5.81 w=5.15 l=3.71
X146 GND.t214 CS_BIAS.t22 CS_BIAS.t23 GND.t177 sky130_fd_pr__nfet_01v8 ad=0.9207 pd=3.45 as=0.9207 ps=3.45 w=2.79 l=5.03
X147 GND.t213 CS_BIAS.t79 VOUT.t58 GND.t169 sky130_fd_pr__nfet_01v8 ad=0.9207 pd=3.45 as=0.9207 ps=3.45 w=2.79 l=5.03
X148 a_n7336_n129.t12 VP.t14 a_n7837_10186.t2 GND.t10 sky130_fd_pr__nfet_01v8 ad=3.9168 pd=12.32 as=1.7952 ps=6.1 w=5.44 l=5.27
X149 VN.t1 GND.t78 GND.t80 GND.t79 sky130_fd_pr__nfet_01v8 ad=0.39 pd=2.78 as=0.165 ps=1.33 w=1 l=0.5
X150 VOUT.t120 a_n5326_8245.t0 sky130_fd_pr__cap_mim_m3_1 l=14.74 w=14.15
X151 VOUT.t57 CS_BIAS.t80 GND.t212 GND.t194 sky130_fd_pr__nfet_01v8 ad=0.9207 pd=3.45 as=0.9207 ps=3.45 w=2.79 l=5.03
X152 GND.t210 CS_BIAS.t20 CS_BIAS.t21 GND.t175 sky130_fd_pr__nfet_01v8 ad=0.9207 pd=3.45 as=0.9207 ps=3.45 w=2.79 l=5.03
X153 GND.t77 GND.t75 GND.t76 GND.t45 sky130_fd_pr__nfet_01v8 ad=2.0088 pd=7.02 as=0 ps=0 w=2.79 l=5.03
X154 VDD.t46 VDD.t44 VDD.t45 VDD.t3 sky130_fd_pr__pfet_01v8 ad=3.4992 pd=11.16 as=0 ps=0 w=4.86 l=5.24
X155 VOUT.t98 a_n18640_8567.t37 VDD.t96 VDD.t79 sky130_fd_pr__pfet_01v8 ad=1.6038 pd=5.52 as=1.6038 ps=5.52 w=4.86 l=5.24
X156 VOUT.t97 a_n18640_8567.t38 VDD.t95 VDD.t79 sky130_fd_pr__pfet_01v8 ad=1.6038 pd=5.52 as=1.6038 ps=5.52 w=4.86 l=5.24
X157 VOUT.t55 CS_BIAS.t81 GND.t209 GND.t157 sky130_fd_pr__nfet_01v8 ad=0.9207 pd=3.45 as=2.0088 ps=7.02 w=2.79 l=5.03
X158 GND.t74 GND.t72 GND.t73 GND.t34 sky130_fd_pr__nfet_01v8 ad=2.0088 pd=7.02 as=0 ps=0 w=2.79 l=5.03
X159 VDD.t43 VDD.t40 VDD.t42 VDD.t41 sky130_fd_pr__pfet_01v8 ad=3.708 pd=11.74 as=0 ps=0 w=5.15 l=3.71
X160 a_n18640_8567.t1 VN.t11 a_n7336_n129.t1 GND.t3 sky130_fd_pr__nfet_01v8 ad=1.7952 pd=6.1 as=1.7952 ps=6.1 w=5.44 l=5.27
X161 VOUT.t121 a_n5326_8245.t0 sky130_fd_pr__cap_mim_m3_1 l=14.74 w=14.15
X162 a_n7336_n129.t27 DIFFPAIR_BIAS.t10 GND.t273 GND.t272 sky130_fd_pr__nfet_01v8 ad=3.492 pd=11.14 as=3.492 ps=11.14 w=4.85 l=2.45
X163 VDD.t39 VDD.t37 VDD.t38 VDD.t22 sky130_fd_pr__pfet_01v8 ad=3.4992 pd=11.16 as=0 ps=0 w=4.86 l=5.24
X164 VOUT.t54 CS_BIAS.t82 GND.t208 GND.t159 sky130_fd_pr__nfet_01v8 ad=0.9207 pd=3.45 as=0.9207 ps=3.45 w=2.79 l=5.03
X165 VDD.t36 VDD.t34 VDD.t35 VDD.t22 sky130_fd_pr__pfet_01v8 ad=3.4992 pd=11.16 as=0 ps=0 w=4.86 l=5.24
X166 VOUT.t53 CS_BIAS.t83 GND.t207 GND.t173 sky130_fd_pr__nfet_01v8 ad=0.9207 pd=3.45 as=0.9207 ps=3.45 w=2.79 l=5.03
X167 a_n5326_8245.t14 a_n7837_10186.t44 VDD.t133 VDD.t132 sky130_fd_pr__pfet_01v8 ad=1.6995 pd=5.81 as=1.6995 ps=5.81 w=5.15 l=3.71
X168 VDD.t94 a_n18640_8567.t39 VOUT.t96 VDD.t91 sky130_fd_pr__pfet_01v8 ad=3.4992 pd=11.16 as=1.6038 ps=5.52 w=4.86 l=5.24
X169 VP.t2 GND.t69 GND.t71 GND.t70 sky130_fd_pr__nfet_01v8 ad=0.165 pd=1.33 as=0.165 ps=1.33 w=1 l=0.5
X170 GND.t68 GND.t66 GND.t67 GND.t30 sky130_fd_pr__nfet_01v8 ad=2.0088 pd=7.02 as=0 ps=0 w=2.79 l=5.03
X171 a_n18640_8567.t0 VN.t12 a_n7336_n129.t0 GND.t0 sky130_fd_pr__nfet_01v8 ad=1.7952 pd=6.1 as=1.7952 ps=6.1 w=5.44 l=5.27
X172 a_n7336_n129.t24 VN.t13 a_n18640_8567.t10 GND.t267 sky130_fd_pr__nfet_01v8 ad=1.7952 pd=6.1 as=1.7952 ps=6.1 w=5.44 l=5.27
X173 GND.t206 CS_BIAS.t84 VOUT.t52 GND.t169 sky130_fd_pr__nfet_01v8 ad=0.9207 pd=3.45 as=0.9207 ps=3.45 w=2.79 l=5.03
X174 VDD.t93 a_n18640_8567.t40 VOUT.t95 VDD.t91 sky130_fd_pr__pfet_01v8 ad=3.4992 pd=11.16 as=1.6038 ps=5.52 w=4.86 l=5.24
X175 VOUT.t70 CS_BIAS.t85 GND.t205 GND.t157 sky130_fd_pr__nfet_01v8 ad=0.9207 pd=3.45 as=2.0088 ps=7.02 w=2.79 l=5.03
X176 VDD.t92 a_n18640_8567.t41 VOUT.t94 VDD.t91 sky130_fd_pr__pfet_01v8 ad=3.4992 pd=11.16 as=1.6038 ps=5.52 w=4.86 l=5.24
X177 GND.t199 CS_BIAS.t86 VOUT.t66 GND.t177 sky130_fd_pr__nfet_01v8 ad=0.9207 pd=3.45 as=0.9207 ps=3.45 w=2.79 l=5.03
X178 VOUT.t69 CS_BIAS.t87 GND.t204 GND.t167 sky130_fd_pr__nfet_01v8 ad=0.9207 pd=3.45 as=0.9207 ps=3.45 w=2.79 l=5.03
X179 GND.t203 CS_BIAS.t88 VOUT.t68 GND.t187 sky130_fd_pr__nfet_01v8 ad=2.0088 pd=7.02 as=0.9207 ps=3.45 w=2.79 l=5.03
X180 CS_BIAS.t29 CS_BIAS.t28 GND.t202 GND.t167 sky130_fd_pr__nfet_01v8 ad=0.9207 pd=3.45 as=0.9207 ps=3.45 w=2.79 l=5.03
X181 CS_BIAS.t27 CS_BIAS.t26 GND.t201 GND.t155 sky130_fd_pr__nfet_01v8 ad=0.9207 pd=3.45 as=0.9207 ps=3.45 w=2.79 l=5.03
X182 GND.t200 CS_BIAS.t89 VOUT.t67 GND.t175 sky130_fd_pr__nfet_01v8 ad=0.9207 pd=3.45 as=0.9207 ps=3.45 w=2.79 l=5.03
X183 GND.t198 CS_BIAS.t90 VOUT.t65 GND.t165 sky130_fd_pr__nfet_01v8 ad=0.9207 pd=3.45 as=0.9207 ps=3.45 w=2.79 l=5.03
X184 GND.t197 CS_BIAS.t24 CS_BIAS.t25 GND.t190 sky130_fd_pr__nfet_01v8 ad=0.9207 pd=3.45 as=0.9207 ps=3.45 w=2.79 l=5.03
X185 GND.t196 CS_BIAS.t91 VOUT.t64 GND.t165 sky130_fd_pr__nfet_01v8 ad=0.9207 pd=3.45 as=0.9207 ps=3.45 w=2.79 l=5.03
X186 VOUT.t63 CS_BIAS.t92 GND.t195 GND.t194 sky130_fd_pr__nfet_01v8 ad=0.9207 pd=3.45 as=0.9207 ps=3.45 w=2.79 l=5.03
X187 VOUT.t93 a_n18640_8567.t42 VDD.t90 VDD.t77 sky130_fd_pr__pfet_01v8 ad=1.6038 pd=5.52 as=3.4992 ps=11.16 w=4.86 l=5.24
X188 VOUT.t92 a_n18640_8567.t43 VDD.t89 VDD.t77 sky130_fd_pr__pfet_01v8 ad=1.6038 pd=5.52 as=3.4992 ps=11.16 w=4.86 l=5.24
X189 GND.t65 GND.t63 GND.t64 GND.t22 sky130_fd_pr__nfet_01v8 ad=2.0088 pd=7.02 as=0 ps=0 w=2.79 l=5.03
X190 VOUT.t91 a_n18640_8567.t44 VDD.t88 VDD.t85 sky130_fd_pr__pfet_01v8 ad=1.6038 pd=5.52 as=1.6038 ps=5.52 w=4.86 l=5.24
X191 VP.t1 GND.t60 GND.t62 GND.t61 sky130_fd_pr__nfet_01v8 ad=0.165 pd=1.33 as=0.165 ps=1.33 w=1 l=0.5
X192 VOUT.t62 CS_BIAS.t93 GND.t193 GND.t163 sky130_fd_pr__nfet_01v8 ad=0.9207 pd=3.45 as=0.9207 ps=3.45 w=2.79 l=5.03
X193 VOUT.t79 CS_BIAS.t94 GND.t192 GND.t157 sky130_fd_pr__nfet_01v8 ad=0.9207 pd=3.45 as=2.0088 ps=7.02 w=2.79 l=5.03
X194 GND.t191 CS_BIAS.t95 VOUT.t78 GND.t190 sky130_fd_pr__nfet_01v8 ad=0.9207 pd=3.45 as=0.9207 ps=3.45 w=2.79 l=5.03
X195 VOUT.t90 a_n18640_8567.t45 VDD.t87 VDD.t83 sky130_fd_pr__pfet_01v8 ad=1.6038 pd=5.52 as=1.6038 ps=5.52 w=4.86 l=5.24
X196 VOUT.t89 a_n18640_8567.t46 VDD.t86 VDD.t85 sky130_fd_pr__pfet_01v8 ad=1.6038 pd=5.52 as=1.6038 ps=5.52 w=4.86 l=5.24
X197 VOUT.t88 a_n18640_8567.t47 VDD.t84 VDD.t83 sky130_fd_pr__pfet_01v8 ad=1.6038 pd=5.52 as=1.6038 ps=5.52 w=4.86 l=5.24
X198 a_n7981_10383.t3 a_n7837_10186.t45 VDD.t131 VDD.t130 sky130_fd_pr__pfet_01v8 ad=1.6995 pd=5.81 as=1.6995 ps=5.81 w=5.15 l=3.71
X199 a_n5326_8245.t8 a_n7837_10186.t46 VDD.t129 VDD.t128 sky130_fd_pr__pfet_01v8 ad=3.708 pd=11.74 as=1.6995 ps=5.81 w=5.15 l=3.71
X200 GND.t189 CS_BIAS.t96 VOUT.t77 GND.t177 sky130_fd_pr__nfet_01v8 ad=0.9207 pd=3.45 as=0.9207 ps=3.45 w=2.79 l=5.03
X201 GND.t188 CS_BIAS.t30 CS_BIAS.t31 GND.t187 sky130_fd_pr__nfet_01v8 ad=2.0088 pd=7.02 as=0.9207 ps=3.45 w=2.79 l=5.03
X202 VOUT.t76 CS_BIAS.t97 GND.t186 GND.t155 sky130_fd_pr__nfet_01v8 ad=0.9207 pd=3.45 as=0.9207 ps=3.45 w=2.79 l=5.03
X203 GND.t59 GND.t57 GND.t58 GND.t22 sky130_fd_pr__nfet_01v8 ad=2.0088 pd=7.02 as=0 ps=0 w=2.79 l=5.03
X204 a_n18640_8567.t13 a_n7837_10186.t47 a_n5326_8245.t7 VDD.t120 sky130_fd_pr__pfet_01v8 ad=1.6995 pd=5.81 as=1.6995 ps=5.81 w=5.15 l=3.71
X205 a_n18640_8567.t5 VN.t14 a_n7336_n129.t5 GND.t6 sky130_fd_pr__nfet_01v8 ad=1.7952 pd=6.1 as=3.9168 ps=12.32 w=5.44 l=5.27
X206 a_n7336_n129.t3 VN.t15 a_n18640_8567.t3 GND.t5 sky130_fd_pr__nfet_01v8 ad=1.7952 pd=6.1 as=1.7952 ps=6.1 w=5.44 l=5.27
X207 VOUT.t75 CS_BIAS.t98 GND.t185 GND.t163 sky130_fd_pr__nfet_01v8 ad=0.9207 pd=3.45 as=0.9207 ps=3.45 w=2.79 l=5.03
X208 GND.t56 GND.t54 GND.t55 GND.t45 sky130_fd_pr__nfet_01v8 ad=2.0088 pd=7.02 as=0 ps=0 w=2.79 l=5.03
X209 GND.t184 CS_BIAS.t99 VOUT.t74 GND.t171 sky130_fd_pr__nfet_01v8 ad=2.0088 pd=7.02 as=0.9207 ps=3.45 w=2.79 l=5.03
X210 VOUT.t73 CS_BIAS.t100 GND.t183 GND.t173 sky130_fd_pr__nfet_01v8 ad=0.9207 pd=3.45 as=0.9207 ps=3.45 w=2.79 l=5.03
X211 a_n5326_8245.t16 a_n7837_10186.t48 a_n18640_8567.t12 VDD.t127 sky130_fd_pr__pfet_01v8 ad=1.6995 pd=5.81 as=1.6995 ps=5.81 w=5.15 l=3.71
X212 VDD.t33 VDD.t31 VDD.t32 VDD.t18 sky130_fd_pr__pfet_01v8 ad=3.708 pd=11.74 as=0 ps=0 w=5.15 l=3.71
X213 a_n7336_n129.t11 VP.t15 a_n7837_10186.t10 GND.t7 sky130_fd_pr__nfet_01v8 ad=1.7952 pd=6.1 as=1.7952 ps=6.1 w=5.44 l=5.27
X214 a_n7837_10186.t7 VP.t16 a_n7336_n129.t10 GND.t20 sky130_fd_pr__nfet_01v8 ad=1.7952 pd=6.1 as=1.7952 ps=6.1 w=5.44 l=5.27
X215 VDD.t126 a_n7837_10186.t49 a_n7981_10383.t2 VDD.t125 sky130_fd_pr__pfet_01v8 ad=1.6995 pd=5.81 as=1.6995 ps=5.81 w=5.15 l=3.71
X216 VDD.t82 a_n18640_8567.t48 VOUT.t87 VDD.t81 sky130_fd_pr__pfet_01v8 ad=3.4992 pd=11.16 as=1.6038 ps=5.52 w=4.86 l=5.24
X217 VOUT.t86 a_n18640_8567.t49 VDD.t80 VDD.t79 sky130_fd_pr__pfet_01v8 ad=1.6038 pd=5.52 as=1.6038 ps=5.52 w=4.86 l=5.24
X218 a_n7837_10186.t14 a_n7837_10186.t13 a_n7981_10383.t10 VDD.t124 sky130_fd_pr__pfet_01v8 ad=1.6995 pd=5.81 as=1.6995 ps=5.81 w=5.15 l=3.71
X219 VOUT.t72 CS_BIAS.t101 GND.t182 GND.t181 sky130_fd_pr__nfet_01v8 ad=0.9207 pd=3.45 as=2.0088 ps=7.02 w=2.79 l=5.03
X220 GND.t180 CS_BIAS.t102 VOUT.t71 GND.t175 sky130_fd_pr__nfet_01v8 ad=0.9207 pd=3.45 as=0.9207 ps=3.45 w=2.79 l=5.03
X221 GND.t179 CS_BIAS.t2 CS_BIAS.t3 GND.t165 sky130_fd_pr__nfet_01v8 ad=0.9207 pd=3.45 as=0.9207 ps=3.45 w=2.79 l=5.03
X222 VN.t0 GND.t51 GND.t53 GND.t52 sky130_fd_pr__nfet_01v8 ad=0.165 pd=1.33 as=0.165 ps=1.33 w=1 l=0.5
X223 VDD.t30 VDD.t28 VDD.t29 VDD.t14 sky130_fd_pr__pfet_01v8 ad=3.4992 pd=11.16 as=0 ps=0 w=4.86 l=5.24
X224 VDD.t27 VDD.t25 VDD.t26 VDD.t14 sky130_fd_pr__pfet_01v8 ad=3.4992 pd=11.16 as=0 ps=0 w=4.86 l=5.24
X225 a_n7981_10383.t9 a_n7837_10186.t19 a_n7837_10186.t20 VDD.t123 sky130_fd_pr__pfet_01v8 ad=1.6995 pd=5.81 as=1.6995 ps=5.81 w=5.15 l=3.71
X226 VP.t0 GND.t48 GND.t50 GND.t49 sky130_fd_pr__nfet_01v8 ad=0.39 pd=2.78 as=0.165 ps=1.33 w=1 l=0.5
X227 a_n7336_n129.t9 VP.t17 a_n7837_10186.t5 GND.t17 sky130_fd_pr__nfet_01v8 ad=3.9168 pd=12.32 as=1.7952 ps=6.1 w=5.44 l=5.27
X228 VDD.t24 VDD.t21 VDD.t23 VDD.t22 sky130_fd_pr__pfet_01v8 ad=3.4992 pd=11.16 as=0 ps=0 w=4.86 l=5.24
X229 GND.t47 GND.t44 GND.t46 GND.t45 sky130_fd_pr__nfet_01v8 ad=2.0088 pd=7.02 as=0 ps=0 w=2.79 l=5.03
X230 VDD.t20 VDD.t17 VDD.t19 VDD.t18 sky130_fd_pr__pfet_01v8 ad=3.708 pd=11.74 as=0 ps=0 w=5.15 l=3.71
X231 VDD.t122 a_n7837_10186.t50 a_n7981_10383.t1 VDD.t121 sky130_fd_pr__pfet_01v8 ad=1.6995 pd=5.81 as=3.708 ps=11.74 w=5.15 l=3.71
X232 a_n7336_n129.t26 DIFFPAIR_BIAS.t11 GND.t271 GND.t270 sky130_fd_pr__nfet_01v8 ad=3.492 pd=11.14 as=3.492 ps=11.14 w=4.85 l=2.45
X233 VDD.t16 VDD.t13 VDD.t15 VDD.t14 sky130_fd_pr__pfet_01v8 ad=3.4992 pd=11.16 as=0 ps=0 w=4.86 l=5.24
X234 GND.t43 GND.t40 GND.t42 GND.t41 sky130_fd_pr__nfet_01v8 ad=3.492 pd=11.14 as=0 ps=0 w=4.85 l=2.45
X235 GND.t39 GND.t37 GND.t38 GND.t30 sky130_fd_pr__nfet_01v8 ad=2.0088 pd=7.02 as=0 ps=0 w=2.79 l=5.03
X236 GND.t36 GND.t33 GND.t35 GND.t34 sky130_fd_pr__nfet_01v8 ad=2.0088 pd=7.02 as=0 ps=0 w=2.79 l=5.03
X237 a_n7981_10383.t8 a_n7837_10186.t15 a_n7837_10186.t16 VDD.t120 sky130_fd_pr__pfet_01v8 ad=1.6995 pd=5.81 as=1.6995 ps=5.81 w=5.15 l=3.71
X238 a_n7336_n129.t6 VN.t16 a_n18640_8567.t6 GND.t8 sky130_fd_pr__nfet_01v8 ad=1.7952 pd=6.1 as=1.7952 ps=6.1 w=5.44 l=5.27
X239 GND.t178 CS_BIAS.t103 VOUT.t5 GND.t177 sky130_fd_pr__nfet_01v8 ad=0.9207 pd=3.45 as=0.9207 ps=3.45 w=2.79 l=5.03
X240 VOUT.t3 CS_BIAS.t104 GND.t174 GND.t173 sky130_fd_pr__nfet_01v8 ad=0.9207 pd=3.45 as=0.9207 ps=3.45 w=2.79 l=5.03
X241 GND.t176 CS_BIAS.t105 VOUT.t4 GND.t175 sky130_fd_pr__nfet_01v8 ad=0.9207 pd=3.45 as=0.9207 ps=3.45 w=2.79 l=5.03
X242 GND.t32 GND.t29 GND.t31 GND.t30 sky130_fd_pr__nfet_01v8 ad=2.0088 pd=7.02 as=0 ps=0 w=2.79 l=5.03
X243 GND.t172 CS_BIAS.t0 CS_BIAS.t1 GND.t171 sky130_fd_pr__nfet_01v8 ad=2.0088 pd=7.02 as=0.9207 ps=3.45 w=2.79 l=5.03
X244 GND.t170 CS_BIAS.t106 VOUT.t2 GND.t169 sky130_fd_pr__nfet_01v8 ad=0.9207 pd=3.45 as=0.9207 ps=3.45 w=2.79 l=5.03
X245 VDD.t12 VDD.t9 VDD.t11 VDD.t10 sky130_fd_pr__pfet_01v8 ad=3.4992 pd=11.16 as=0 ps=0 w=4.86 l=5.24
X246 a_n7336_n129.t23 VN.t17 a_n18640_8567.t9 GND.t10 sky130_fd_pr__nfet_01v8 ad=3.9168 pd=12.32 as=1.7952 ps=6.1 w=5.44 l=5.27
X247 VOUT.t122 a_n5326_8245.t0 sky130_fd_pr__cap_mim_m3_1 l=14.74 w=14.15
X248 VOUT.t1 CS_BIAS.t107 GND.t168 GND.t167 sky130_fd_pr__nfet_01v8 ad=0.9207 pd=3.45 as=0.9207 ps=3.45 w=2.79 l=5.03
X249 GND.t28 GND.t25 GND.t27 GND.t26 sky130_fd_pr__nfet_01v8 ad=3.9168 pd=12.32 as=0 ps=0 w=5.44 l=5.27
X250 GND.t166 CS_BIAS.t108 VOUT.t0 GND.t165 sky130_fd_pr__nfet_01v8 ad=0.9207 pd=3.45 as=0.9207 ps=3.45 w=2.79 l=5.03
X251 GND.t162 CS_BIAS.t109 VOUT.t8 GND.t161 sky130_fd_pr__nfet_01v8 ad=0.9207 pd=3.45 as=0.9207 ps=3.45 w=2.79 l=5.03
X252 CS_BIAS.t5 CS_BIAS.t4 GND.t160 GND.t159 sky130_fd_pr__nfet_01v8 ad=0.9207 pd=3.45 as=0.9207 ps=3.45 w=2.79 l=5.03
X253 VOUT.t7 CS_BIAS.t110 GND.t158 GND.t157 sky130_fd_pr__nfet_01v8 ad=0.9207 pd=3.45 as=2.0088 ps=7.02 w=2.79 l=5.03