* NGSPICE file created from diff_pair_sample_1095.ext - technology: sky130A

.subckt diff_pair_sample_1095 VTAIL VN VP B VDD2 VDD1
X0 B.t11 B.t9 B.t10 w_n1542_n4834# sky130_fd_pr__pfet_01v8 ad=7.5309 pd=39.4 as=0 ps=0 w=19.31 l=1.1
X1 B.t8 B.t6 B.t7 w_n1542_n4834# sky130_fd_pr__pfet_01v8 ad=7.5309 pd=39.4 as=0 ps=0 w=19.31 l=1.1
X2 VDD2.t1 VN.t0 VTAIL.t3 w_n1542_n4834# sky130_fd_pr__pfet_01v8 ad=7.5309 pd=39.4 as=7.5309 ps=39.4 w=19.31 l=1.1
X3 VDD1.t1 VP.t0 VTAIL.t0 w_n1542_n4834# sky130_fd_pr__pfet_01v8 ad=7.5309 pd=39.4 as=7.5309 ps=39.4 w=19.31 l=1.1
X4 B.t5 B.t3 B.t4 w_n1542_n4834# sky130_fd_pr__pfet_01v8 ad=7.5309 pd=39.4 as=0 ps=0 w=19.31 l=1.1
X5 VDD1.t0 VP.t1 VTAIL.t1 w_n1542_n4834# sky130_fd_pr__pfet_01v8 ad=7.5309 pd=39.4 as=7.5309 ps=39.4 w=19.31 l=1.1
X6 B.t2 B.t0 B.t1 w_n1542_n4834# sky130_fd_pr__pfet_01v8 ad=7.5309 pd=39.4 as=0 ps=0 w=19.31 l=1.1
X7 VDD2.t0 VN.t1 VTAIL.t2 w_n1542_n4834# sky130_fd_pr__pfet_01v8 ad=7.5309 pd=39.4 as=7.5309 ps=39.4 w=19.31 l=1.1
R0 B.n137 B.t0 626.625
R1 B.n309 B.t3 626.625
R2 B.n50 B.t9 626.625
R3 B.n42 B.t6 626.625
R4 B.n407 B.n100 585
R5 B.n406 B.n405 585
R6 B.n404 B.n101 585
R7 B.n403 B.n402 585
R8 B.n401 B.n102 585
R9 B.n400 B.n399 585
R10 B.n398 B.n103 585
R11 B.n397 B.n396 585
R12 B.n395 B.n104 585
R13 B.n394 B.n393 585
R14 B.n392 B.n105 585
R15 B.n391 B.n390 585
R16 B.n389 B.n106 585
R17 B.n388 B.n387 585
R18 B.n386 B.n107 585
R19 B.n385 B.n384 585
R20 B.n383 B.n108 585
R21 B.n382 B.n381 585
R22 B.n380 B.n109 585
R23 B.n379 B.n378 585
R24 B.n377 B.n110 585
R25 B.n376 B.n375 585
R26 B.n374 B.n111 585
R27 B.n373 B.n372 585
R28 B.n371 B.n112 585
R29 B.n370 B.n369 585
R30 B.n368 B.n113 585
R31 B.n367 B.n366 585
R32 B.n365 B.n114 585
R33 B.n364 B.n363 585
R34 B.n362 B.n115 585
R35 B.n361 B.n360 585
R36 B.n359 B.n116 585
R37 B.n358 B.n357 585
R38 B.n356 B.n117 585
R39 B.n355 B.n354 585
R40 B.n353 B.n118 585
R41 B.n352 B.n351 585
R42 B.n350 B.n119 585
R43 B.n349 B.n348 585
R44 B.n347 B.n120 585
R45 B.n346 B.n345 585
R46 B.n344 B.n121 585
R47 B.n343 B.n342 585
R48 B.n341 B.n122 585
R49 B.n340 B.n339 585
R50 B.n338 B.n123 585
R51 B.n337 B.n336 585
R52 B.n335 B.n124 585
R53 B.n334 B.n333 585
R54 B.n332 B.n125 585
R55 B.n331 B.n330 585
R56 B.n329 B.n126 585
R57 B.n328 B.n327 585
R58 B.n326 B.n127 585
R59 B.n325 B.n324 585
R60 B.n323 B.n128 585
R61 B.n322 B.n321 585
R62 B.n320 B.n129 585
R63 B.n319 B.n318 585
R64 B.n317 B.n130 585
R65 B.n316 B.n315 585
R66 B.n314 B.n131 585
R67 B.n313 B.n312 585
R68 B.n308 B.n132 585
R69 B.n307 B.n306 585
R70 B.n305 B.n133 585
R71 B.n304 B.n303 585
R72 B.n302 B.n134 585
R73 B.n301 B.n300 585
R74 B.n299 B.n135 585
R75 B.n298 B.n297 585
R76 B.n296 B.n136 585
R77 B.n294 B.n293 585
R78 B.n292 B.n139 585
R79 B.n291 B.n290 585
R80 B.n289 B.n140 585
R81 B.n288 B.n287 585
R82 B.n286 B.n141 585
R83 B.n285 B.n284 585
R84 B.n283 B.n142 585
R85 B.n282 B.n281 585
R86 B.n280 B.n143 585
R87 B.n279 B.n278 585
R88 B.n277 B.n144 585
R89 B.n276 B.n275 585
R90 B.n274 B.n145 585
R91 B.n273 B.n272 585
R92 B.n271 B.n146 585
R93 B.n270 B.n269 585
R94 B.n268 B.n147 585
R95 B.n267 B.n266 585
R96 B.n265 B.n148 585
R97 B.n264 B.n263 585
R98 B.n262 B.n149 585
R99 B.n261 B.n260 585
R100 B.n259 B.n150 585
R101 B.n258 B.n257 585
R102 B.n256 B.n151 585
R103 B.n255 B.n254 585
R104 B.n253 B.n152 585
R105 B.n252 B.n251 585
R106 B.n250 B.n153 585
R107 B.n249 B.n248 585
R108 B.n247 B.n154 585
R109 B.n246 B.n245 585
R110 B.n244 B.n155 585
R111 B.n243 B.n242 585
R112 B.n241 B.n156 585
R113 B.n240 B.n239 585
R114 B.n238 B.n157 585
R115 B.n237 B.n236 585
R116 B.n235 B.n158 585
R117 B.n234 B.n233 585
R118 B.n232 B.n159 585
R119 B.n231 B.n230 585
R120 B.n229 B.n160 585
R121 B.n228 B.n227 585
R122 B.n226 B.n161 585
R123 B.n225 B.n224 585
R124 B.n223 B.n162 585
R125 B.n222 B.n221 585
R126 B.n220 B.n163 585
R127 B.n219 B.n218 585
R128 B.n217 B.n164 585
R129 B.n216 B.n215 585
R130 B.n214 B.n165 585
R131 B.n213 B.n212 585
R132 B.n211 B.n166 585
R133 B.n210 B.n209 585
R134 B.n208 B.n167 585
R135 B.n207 B.n206 585
R136 B.n205 B.n168 585
R137 B.n204 B.n203 585
R138 B.n202 B.n169 585
R139 B.n201 B.n200 585
R140 B.n409 B.n408 585
R141 B.n410 B.n99 585
R142 B.n412 B.n411 585
R143 B.n413 B.n98 585
R144 B.n415 B.n414 585
R145 B.n416 B.n97 585
R146 B.n418 B.n417 585
R147 B.n419 B.n96 585
R148 B.n421 B.n420 585
R149 B.n422 B.n95 585
R150 B.n424 B.n423 585
R151 B.n425 B.n94 585
R152 B.n427 B.n426 585
R153 B.n428 B.n93 585
R154 B.n430 B.n429 585
R155 B.n431 B.n92 585
R156 B.n433 B.n432 585
R157 B.n434 B.n91 585
R158 B.n436 B.n435 585
R159 B.n437 B.n90 585
R160 B.n439 B.n438 585
R161 B.n440 B.n89 585
R162 B.n442 B.n441 585
R163 B.n443 B.n88 585
R164 B.n445 B.n444 585
R165 B.n446 B.n87 585
R166 B.n448 B.n447 585
R167 B.n449 B.n86 585
R168 B.n451 B.n450 585
R169 B.n452 B.n85 585
R170 B.n454 B.n453 585
R171 B.n455 B.n84 585
R172 B.n457 B.n456 585
R173 B.n458 B.n83 585
R174 B.n663 B.n10 585
R175 B.n662 B.n661 585
R176 B.n660 B.n11 585
R177 B.n659 B.n658 585
R178 B.n657 B.n12 585
R179 B.n656 B.n655 585
R180 B.n654 B.n13 585
R181 B.n653 B.n652 585
R182 B.n651 B.n14 585
R183 B.n650 B.n649 585
R184 B.n648 B.n15 585
R185 B.n647 B.n646 585
R186 B.n645 B.n16 585
R187 B.n644 B.n643 585
R188 B.n642 B.n17 585
R189 B.n641 B.n640 585
R190 B.n639 B.n18 585
R191 B.n638 B.n637 585
R192 B.n636 B.n19 585
R193 B.n635 B.n634 585
R194 B.n633 B.n20 585
R195 B.n632 B.n631 585
R196 B.n630 B.n21 585
R197 B.n629 B.n628 585
R198 B.n627 B.n22 585
R199 B.n626 B.n625 585
R200 B.n624 B.n23 585
R201 B.n623 B.n622 585
R202 B.n621 B.n24 585
R203 B.n620 B.n619 585
R204 B.n618 B.n25 585
R205 B.n617 B.n616 585
R206 B.n615 B.n26 585
R207 B.n614 B.n613 585
R208 B.n612 B.n27 585
R209 B.n611 B.n610 585
R210 B.n609 B.n28 585
R211 B.n608 B.n607 585
R212 B.n606 B.n29 585
R213 B.n605 B.n604 585
R214 B.n603 B.n30 585
R215 B.n602 B.n601 585
R216 B.n600 B.n31 585
R217 B.n599 B.n598 585
R218 B.n597 B.n32 585
R219 B.n596 B.n595 585
R220 B.n594 B.n33 585
R221 B.n593 B.n592 585
R222 B.n591 B.n34 585
R223 B.n590 B.n589 585
R224 B.n588 B.n35 585
R225 B.n587 B.n586 585
R226 B.n585 B.n36 585
R227 B.n584 B.n583 585
R228 B.n582 B.n37 585
R229 B.n581 B.n580 585
R230 B.n579 B.n38 585
R231 B.n578 B.n577 585
R232 B.n576 B.n39 585
R233 B.n575 B.n574 585
R234 B.n573 B.n40 585
R235 B.n572 B.n571 585
R236 B.n570 B.n41 585
R237 B.n568 B.n567 585
R238 B.n566 B.n44 585
R239 B.n565 B.n564 585
R240 B.n563 B.n45 585
R241 B.n562 B.n561 585
R242 B.n560 B.n46 585
R243 B.n559 B.n558 585
R244 B.n557 B.n47 585
R245 B.n556 B.n555 585
R246 B.n554 B.n48 585
R247 B.n553 B.n552 585
R248 B.n551 B.n49 585
R249 B.n550 B.n549 585
R250 B.n548 B.n53 585
R251 B.n547 B.n546 585
R252 B.n545 B.n54 585
R253 B.n544 B.n543 585
R254 B.n542 B.n55 585
R255 B.n541 B.n540 585
R256 B.n539 B.n56 585
R257 B.n538 B.n537 585
R258 B.n536 B.n57 585
R259 B.n535 B.n534 585
R260 B.n533 B.n58 585
R261 B.n532 B.n531 585
R262 B.n530 B.n59 585
R263 B.n529 B.n528 585
R264 B.n527 B.n60 585
R265 B.n526 B.n525 585
R266 B.n524 B.n61 585
R267 B.n523 B.n522 585
R268 B.n521 B.n62 585
R269 B.n520 B.n519 585
R270 B.n518 B.n63 585
R271 B.n517 B.n516 585
R272 B.n515 B.n64 585
R273 B.n514 B.n513 585
R274 B.n512 B.n65 585
R275 B.n511 B.n510 585
R276 B.n509 B.n66 585
R277 B.n508 B.n507 585
R278 B.n506 B.n67 585
R279 B.n505 B.n504 585
R280 B.n503 B.n68 585
R281 B.n502 B.n501 585
R282 B.n500 B.n69 585
R283 B.n499 B.n498 585
R284 B.n497 B.n70 585
R285 B.n496 B.n495 585
R286 B.n494 B.n71 585
R287 B.n493 B.n492 585
R288 B.n491 B.n72 585
R289 B.n490 B.n489 585
R290 B.n488 B.n73 585
R291 B.n487 B.n486 585
R292 B.n485 B.n74 585
R293 B.n484 B.n483 585
R294 B.n482 B.n75 585
R295 B.n481 B.n480 585
R296 B.n479 B.n76 585
R297 B.n478 B.n477 585
R298 B.n476 B.n77 585
R299 B.n475 B.n474 585
R300 B.n473 B.n78 585
R301 B.n472 B.n471 585
R302 B.n470 B.n79 585
R303 B.n469 B.n468 585
R304 B.n467 B.n80 585
R305 B.n466 B.n465 585
R306 B.n464 B.n81 585
R307 B.n463 B.n462 585
R308 B.n461 B.n82 585
R309 B.n460 B.n459 585
R310 B.n665 B.n664 585
R311 B.n666 B.n9 585
R312 B.n668 B.n667 585
R313 B.n669 B.n8 585
R314 B.n671 B.n670 585
R315 B.n672 B.n7 585
R316 B.n674 B.n673 585
R317 B.n675 B.n6 585
R318 B.n677 B.n676 585
R319 B.n678 B.n5 585
R320 B.n680 B.n679 585
R321 B.n681 B.n4 585
R322 B.n683 B.n682 585
R323 B.n684 B.n3 585
R324 B.n686 B.n685 585
R325 B.n687 B.n0 585
R326 B.n2 B.n1 585
R327 B.n178 B.n177 585
R328 B.n180 B.n179 585
R329 B.n181 B.n176 585
R330 B.n183 B.n182 585
R331 B.n184 B.n175 585
R332 B.n186 B.n185 585
R333 B.n187 B.n174 585
R334 B.n189 B.n188 585
R335 B.n190 B.n173 585
R336 B.n192 B.n191 585
R337 B.n193 B.n172 585
R338 B.n195 B.n194 585
R339 B.n196 B.n171 585
R340 B.n198 B.n197 585
R341 B.n199 B.n170 585
R342 B.n201 B.n170 497.305
R343 B.n409 B.n100 497.305
R344 B.n459 B.n458 497.305
R345 B.n664 B.n663 497.305
R346 B.n689 B.n688 256.663
R347 B.n688 B.n687 235.042
R348 B.n688 B.n2 235.042
R349 B.n202 B.n201 163.367
R350 B.n203 B.n202 163.367
R351 B.n203 B.n168 163.367
R352 B.n207 B.n168 163.367
R353 B.n208 B.n207 163.367
R354 B.n209 B.n208 163.367
R355 B.n209 B.n166 163.367
R356 B.n213 B.n166 163.367
R357 B.n214 B.n213 163.367
R358 B.n215 B.n214 163.367
R359 B.n215 B.n164 163.367
R360 B.n219 B.n164 163.367
R361 B.n220 B.n219 163.367
R362 B.n221 B.n220 163.367
R363 B.n221 B.n162 163.367
R364 B.n225 B.n162 163.367
R365 B.n226 B.n225 163.367
R366 B.n227 B.n226 163.367
R367 B.n227 B.n160 163.367
R368 B.n231 B.n160 163.367
R369 B.n232 B.n231 163.367
R370 B.n233 B.n232 163.367
R371 B.n233 B.n158 163.367
R372 B.n237 B.n158 163.367
R373 B.n238 B.n237 163.367
R374 B.n239 B.n238 163.367
R375 B.n239 B.n156 163.367
R376 B.n243 B.n156 163.367
R377 B.n244 B.n243 163.367
R378 B.n245 B.n244 163.367
R379 B.n245 B.n154 163.367
R380 B.n249 B.n154 163.367
R381 B.n250 B.n249 163.367
R382 B.n251 B.n250 163.367
R383 B.n251 B.n152 163.367
R384 B.n255 B.n152 163.367
R385 B.n256 B.n255 163.367
R386 B.n257 B.n256 163.367
R387 B.n257 B.n150 163.367
R388 B.n261 B.n150 163.367
R389 B.n262 B.n261 163.367
R390 B.n263 B.n262 163.367
R391 B.n263 B.n148 163.367
R392 B.n267 B.n148 163.367
R393 B.n268 B.n267 163.367
R394 B.n269 B.n268 163.367
R395 B.n269 B.n146 163.367
R396 B.n273 B.n146 163.367
R397 B.n274 B.n273 163.367
R398 B.n275 B.n274 163.367
R399 B.n275 B.n144 163.367
R400 B.n279 B.n144 163.367
R401 B.n280 B.n279 163.367
R402 B.n281 B.n280 163.367
R403 B.n281 B.n142 163.367
R404 B.n285 B.n142 163.367
R405 B.n286 B.n285 163.367
R406 B.n287 B.n286 163.367
R407 B.n287 B.n140 163.367
R408 B.n291 B.n140 163.367
R409 B.n292 B.n291 163.367
R410 B.n293 B.n292 163.367
R411 B.n293 B.n136 163.367
R412 B.n298 B.n136 163.367
R413 B.n299 B.n298 163.367
R414 B.n300 B.n299 163.367
R415 B.n300 B.n134 163.367
R416 B.n304 B.n134 163.367
R417 B.n305 B.n304 163.367
R418 B.n306 B.n305 163.367
R419 B.n306 B.n132 163.367
R420 B.n313 B.n132 163.367
R421 B.n314 B.n313 163.367
R422 B.n315 B.n314 163.367
R423 B.n315 B.n130 163.367
R424 B.n319 B.n130 163.367
R425 B.n320 B.n319 163.367
R426 B.n321 B.n320 163.367
R427 B.n321 B.n128 163.367
R428 B.n325 B.n128 163.367
R429 B.n326 B.n325 163.367
R430 B.n327 B.n326 163.367
R431 B.n327 B.n126 163.367
R432 B.n331 B.n126 163.367
R433 B.n332 B.n331 163.367
R434 B.n333 B.n332 163.367
R435 B.n333 B.n124 163.367
R436 B.n337 B.n124 163.367
R437 B.n338 B.n337 163.367
R438 B.n339 B.n338 163.367
R439 B.n339 B.n122 163.367
R440 B.n343 B.n122 163.367
R441 B.n344 B.n343 163.367
R442 B.n345 B.n344 163.367
R443 B.n345 B.n120 163.367
R444 B.n349 B.n120 163.367
R445 B.n350 B.n349 163.367
R446 B.n351 B.n350 163.367
R447 B.n351 B.n118 163.367
R448 B.n355 B.n118 163.367
R449 B.n356 B.n355 163.367
R450 B.n357 B.n356 163.367
R451 B.n357 B.n116 163.367
R452 B.n361 B.n116 163.367
R453 B.n362 B.n361 163.367
R454 B.n363 B.n362 163.367
R455 B.n363 B.n114 163.367
R456 B.n367 B.n114 163.367
R457 B.n368 B.n367 163.367
R458 B.n369 B.n368 163.367
R459 B.n369 B.n112 163.367
R460 B.n373 B.n112 163.367
R461 B.n374 B.n373 163.367
R462 B.n375 B.n374 163.367
R463 B.n375 B.n110 163.367
R464 B.n379 B.n110 163.367
R465 B.n380 B.n379 163.367
R466 B.n381 B.n380 163.367
R467 B.n381 B.n108 163.367
R468 B.n385 B.n108 163.367
R469 B.n386 B.n385 163.367
R470 B.n387 B.n386 163.367
R471 B.n387 B.n106 163.367
R472 B.n391 B.n106 163.367
R473 B.n392 B.n391 163.367
R474 B.n393 B.n392 163.367
R475 B.n393 B.n104 163.367
R476 B.n397 B.n104 163.367
R477 B.n398 B.n397 163.367
R478 B.n399 B.n398 163.367
R479 B.n399 B.n102 163.367
R480 B.n403 B.n102 163.367
R481 B.n404 B.n403 163.367
R482 B.n405 B.n404 163.367
R483 B.n405 B.n100 163.367
R484 B.n458 B.n457 163.367
R485 B.n457 B.n84 163.367
R486 B.n453 B.n84 163.367
R487 B.n453 B.n452 163.367
R488 B.n452 B.n451 163.367
R489 B.n451 B.n86 163.367
R490 B.n447 B.n86 163.367
R491 B.n447 B.n446 163.367
R492 B.n446 B.n445 163.367
R493 B.n445 B.n88 163.367
R494 B.n441 B.n88 163.367
R495 B.n441 B.n440 163.367
R496 B.n440 B.n439 163.367
R497 B.n439 B.n90 163.367
R498 B.n435 B.n90 163.367
R499 B.n435 B.n434 163.367
R500 B.n434 B.n433 163.367
R501 B.n433 B.n92 163.367
R502 B.n429 B.n92 163.367
R503 B.n429 B.n428 163.367
R504 B.n428 B.n427 163.367
R505 B.n427 B.n94 163.367
R506 B.n423 B.n94 163.367
R507 B.n423 B.n422 163.367
R508 B.n422 B.n421 163.367
R509 B.n421 B.n96 163.367
R510 B.n417 B.n96 163.367
R511 B.n417 B.n416 163.367
R512 B.n416 B.n415 163.367
R513 B.n415 B.n98 163.367
R514 B.n411 B.n98 163.367
R515 B.n411 B.n410 163.367
R516 B.n410 B.n409 163.367
R517 B.n663 B.n662 163.367
R518 B.n662 B.n11 163.367
R519 B.n658 B.n11 163.367
R520 B.n658 B.n657 163.367
R521 B.n657 B.n656 163.367
R522 B.n656 B.n13 163.367
R523 B.n652 B.n13 163.367
R524 B.n652 B.n651 163.367
R525 B.n651 B.n650 163.367
R526 B.n650 B.n15 163.367
R527 B.n646 B.n15 163.367
R528 B.n646 B.n645 163.367
R529 B.n645 B.n644 163.367
R530 B.n644 B.n17 163.367
R531 B.n640 B.n17 163.367
R532 B.n640 B.n639 163.367
R533 B.n639 B.n638 163.367
R534 B.n638 B.n19 163.367
R535 B.n634 B.n19 163.367
R536 B.n634 B.n633 163.367
R537 B.n633 B.n632 163.367
R538 B.n632 B.n21 163.367
R539 B.n628 B.n21 163.367
R540 B.n628 B.n627 163.367
R541 B.n627 B.n626 163.367
R542 B.n626 B.n23 163.367
R543 B.n622 B.n23 163.367
R544 B.n622 B.n621 163.367
R545 B.n621 B.n620 163.367
R546 B.n620 B.n25 163.367
R547 B.n616 B.n25 163.367
R548 B.n616 B.n615 163.367
R549 B.n615 B.n614 163.367
R550 B.n614 B.n27 163.367
R551 B.n610 B.n27 163.367
R552 B.n610 B.n609 163.367
R553 B.n609 B.n608 163.367
R554 B.n608 B.n29 163.367
R555 B.n604 B.n29 163.367
R556 B.n604 B.n603 163.367
R557 B.n603 B.n602 163.367
R558 B.n602 B.n31 163.367
R559 B.n598 B.n31 163.367
R560 B.n598 B.n597 163.367
R561 B.n597 B.n596 163.367
R562 B.n596 B.n33 163.367
R563 B.n592 B.n33 163.367
R564 B.n592 B.n591 163.367
R565 B.n591 B.n590 163.367
R566 B.n590 B.n35 163.367
R567 B.n586 B.n35 163.367
R568 B.n586 B.n585 163.367
R569 B.n585 B.n584 163.367
R570 B.n584 B.n37 163.367
R571 B.n580 B.n37 163.367
R572 B.n580 B.n579 163.367
R573 B.n579 B.n578 163.367
R574 B.n578 B.n39 163.367
R575 B.n574 B.n39 163.367
R576 B.n574 B.n573 163.367
R577 B.n573 B.n572 163.367
R578 B.n572 B.n41 163.367
R579 B.n567 B.n41 163.367
R580 B.n567 B.n566 163.367
R581 B.n566 B.n565 163.367
R582 B.n565 B.n45 163.367
R583 B.n561 B.n45 163.367
R584 B.n561 B.n560 163.367
R585 B.n560 B.n559 163.367
R586 B.n559 B.n47 163.367
R587 B.n555 B.n47 163.367
R588 B.n555 B.n554 163.367
R589 B.n554 B.n553 163.367
R590 B.n553 B.n49 163.367
R591 B.n549 B.n49 163.367
R592 B.n549 B.n548 163.367
R593 B.n548 B.n547 163.367
R594 B.n547 B.n54 163.367
R595 B.n543 B.n54 163.367
R596 B.n543 B.n542 163.367
R597 B.n542 B.n541 163.367
R598 B.n541 B.n56 163.367
R599 B.n537 B.n56 163.367
R600 B.n537 B.n536 163.367
R601 B.n536 B.n535 163.367
R602 B.n535 B.n58 163.367
R603 B.n531 B.n58 163.367
R604 B.n531 B.n530 163.367
R605 B.n530 B.n529 163.367
R606 B.n529 B.n60 163.367
R607 B.n525 B.n60 163.367
R608 B.n525 B.n524 163.367
R609 B.n524 B.n523 163.367
R610 B.n523 B.n62 163.367
R611 B.n519 B.n62 163.367
R612 B.n519 B.n518 163.367
R613 B.n518 B.n517 163.367
R614 B.n517 B.n64 163.367
R615 B.n513 B.n64 163.367
R616 B.n513 B.n512 163.367
R617 B.n512 B.n511 163.367
R618 B.n511 B.n66 163.367
R619 B.n507 B.n66 163.367
R620 B.n507 B.n506 163.367
R621 B.n506 B.n505 163.367
R622 B.n505 B.n68 163.367
R623 B.n501 B.n68 163.367
R624 B.n501 B.n500 163.367
R625 B.n500 B.n499 163.367
R626 B.n499 B.n70 163.367
R627 B.n495 B.n70 163.367
R628 B.n495 B.n494 163.367
R629 B.n494 B.n493 163.367
R630 B.n493 B.n72 163.367
R631 B.n489 B.n72 163.367
R632 B.n489 B.n488 163.367
R633 B.n488 B.n487 163.367
R634 B.n487 B.n74 163.367
R635 B.n483 B.n74 163.367
R636 B.n483 B.n482 163.367
R637 B.n482 B.n481 163.367
R638 B.n481 B.n76 163.367
R639 B.n477 B.n76 163.367
R640 B.n477 B.n476 163.367
R641 B.n476 B.n475 163.367
R642 B.n475 B.n78 163.367
R643 B.n471 B.n78 163.367
R644 B.n471 B.n470 163.367
R645 B.n470 B.n469 163.367
R646 B.n469 B.n80 163.367
R647 B.n465 B.n80 163.367
R648 B.n465 B.n464 163.367
R649 B.n464 B.n463 163.367
R650 B.n463 B.n82 163.367
R651 B.n459 B.n82 163.367
R652 B.n664 B.n9 163.367
R653 B.n668 B.n9 163.367
R654 B.n669 B.n668 163.367
R655 B.n670 B.n669 163.367
R656 B.n670 B.n7 163.367
R657 B.n674 B.n7 163.367
R658 B.n675 B.n674 163.367
R659 B.n676 B.n675 163.367
R660 B.n676 B.n5 163.367
R661 B.n680 B.n5 163.367
R662 B.n681 B.n680 163.367
R663 B.n682 B.n681 163.367
R664 B.n682 B.n3 163.367
R665 B.n686 B.n3 163.367
R666 B.n687 B.n686 163.367
R667 B.n178 B.n2 163.367
R668 B.n179 B.n178 163.367
R669 B.n179 B.n176 163.367
R670 B.n183 B.n176 163.367
R671 B.n184 B.n183 163.367
R672 B.n185 B.n184 163.367
R673 B.n185 B.n174 163.367
R674 B.n189 B.n174 163.367
R675 B.n190 B.n189 163.367
R676 B.n191 B.n190 163.367
R677 B.n191 B.n172 163.367
R678 B.n195 B.n172 163.367
R679 B.n196 B.n195 163.367
R680 B.n197 B.n196 163.367
R681 B.n197 B.n170 163.367
R682 B.n309 B.t4 139.053
R683 B.n50 B.t11 139.053
R684 B.n137 B.t1 139.028
R685 B.n42 B.t8 139.028
R686 B.n310 B.t5 111.32
R687 B.n51 B.t10 111.32
R688 B.n138 B.t2 111.294
R689 B.n43 B.t7 111.294
R690 B.n295 B.n138 59.5399
R691 B.n311 B.n310 59.5399
R692 B.n52 B.n51 59.5399
R693 B.n569 B.n43 59.5399
R694 B.n665 B.n10 32.3127
R695 B.n460 B.n83 32.3127
R696 B.n408 B.n407 32.3127
R697 B.n200 B.n199 32.3127
R698 B.n138 B.n137 27.7338
R699 B.n310 B.n309 27.7338
R700 B.n51 B.n50 27.7338
R701 B.n43 B.n42 27.7338
R702 B B.n689 18.0485
R703 B.n666 B.n665 10.6151
R704 B.n667 B.n666 10.6151
R705 B.n667 B.n8 10.6151
R706 B.n671 B.n8 10.6151
R707 B.n672 B.n671 10.6151
R708 B.n673 B.n672 10.6151
R709 B.n673 B.n6 10.6151
R710 B.n677 B.n6 10.6151
R711 B.n678 B.n677 10.6151
R712 B.n679 B.n678 10.6151
R713 B.n679 B.n4 10.6151
R714 B.n683 B.n4 10.6151
R715 B.n684 B.n683 10.6151
R716 B.n685 B.n684 10.6151
R717 B.n685 B.n0 10.6151
R718 B.n661 B.n10 10.6151
R719 B.n661 B.n660 10.6151
R720 B.n660 B.n659 10.6151
R721 B.n659 B.n12 10.6151
R722 B.n655 B.n12 10.6151
R723 B.n655 B.n654 10.6151
R724 B.n654 B.n653 10.6151
R725 B.n653 B.n14 10.6151
R726 B.n649 B.n14 10.6151
R727 B.n649 B.n648 10.6151
R728 B.n648 B.n647 10.6151
R729 B.n647 B.n16 10.6151
R730 B.n643 B.n16 10.6151
R731 B.n643 B.n642 10.6151
R732 B.n642 B.n641 10.6151
R733 B.n641 B.n18 10.6151
R734 B.n637 B.n18 10.6151
R735 B.n637 B.n636 10.6151
R736 B.n636 B.n635 10.6151
R737 B.n635 B.n20 10.6151
R738 B.n631 B.n20 10.6151
R739 B.n631 B.n630 10.6151
R740 B.n630 B.n629 10.6151
R741 B.n629 B.n22 10.6151
R742 B.n625 B.n22 10.6151
R743 B.n625 B.n624 10.6151
R744 B.n624 B.n623 10.6151
R745 B.n623 B.n24 10.6151
R746 B.n619 B.n24 10.6151
R747 B.n619 B.n618 10.6151
R748 B.n618 B.n617 10.6151
R749 B.n617 B.n26 10.6151
R750 B.n613 B.n26 10.6151
R751 B.n613 B.n612 10.6151
R752 B.n612 B.n611 10.6151
R753 B.n611 B.n28 10.6151
R754 B.n607 B.n28 10.6151
R755 B.n607 B.n606 10.6151
R756 B.n606 B.n605 10.6151
R757 B.n605 B.n30 10.6151
R758 B.n601 B.n30 10.6151
R759 B.n601 B.n600 10.6151
R760 B.n600 B.n599 10.6151
R761 B.n599 B.n32 10.6151
R762 B.n595 B.n32 10.6151
R763 B.n595 B.n594 10.6151
R764 B.n594 B.n593 10.6151
R765 B.n593 B.n34 10.6151
R766 B.n589 B.n34 10.6151
R767 B.n589 B.n588 10.6151
R768 B.n588 B.n587 10.6151
R769 B.n587 B.n36 10.6151
R770 B.n583 B.n36 10.6151
R771 B.n583 B.n582 10.6151
R772 B.n582 B.n581 10.6151
R773 B.n581 B.n38 10.6151
R774 B.n577 B.n38 10.6151
R775 B.n577 B.n576 10.6151
R776 B.n576 B.n575 10.6151
R777 B.n575 B.n40 10.6151
R778 B.n571 B.n40 10.6151
R779 B.n571 B.n570 10.6151
R780 B.n568 B.n44 10.6151
R781 B.n564 B.n44 10.6151
R782 B.n564 B.n563 10.6151
R783 B.n563 B.n562 10.6151
R784 B.n562 B.n46 10.6151
R785 B.n558 B.n46 10.6151
R786 B.n558 B.n557 10.6151
R787 B.n557 B.n556 10.6151
R788 B.n556 B.n48 10.6151
R789 B.n552 B.n551 10.6151
R790 B.n551 B.n550 10.6151
R791 B.n550 B.n53 10.6151
R792 B.n546 B.n53 10.6151
R793 B.n546 B.n545 10.6151
R794 B.n545 B.n544 10.6151
R795 B.n544 B.n55 10.6151
R796 B.n540 B.n55 10.6151
R797 B.n540 B.n539 10.6151
R798 B.n539 B.n538 10.6151
R799 B.n538 B.n57 10.6151
R800 B.n534 B.n57 10.6151
R801 B.n534 B.n533 10.6151
R802 B.n533 B.n532 10.6151
R803 B.n532 B.n59 10.6151
R804 B.n528 B.n59 10.6151
R805 B.n528 B.n527 10.6151
R806 B.n527 B.n526 10.6151
R807 B.n526 B.n61 10.6151
R808 B.n522 B.n61 10.6151
R809 B.n522 B.n521 10.6151
R810 B.n521 B.n520 10.6151
R811 B.n520 B.n63 10.6151
R812 B.n516 B.n63 10.6151
R813 B.n516 B.n515 10.6151
R814 B.n515 B.n514 10.6151
R815 B.n514 B.n65 10.6151
R816 B.n510 B.n65 10.6151
R817 B.n510 B.n509 10.6151
R818 B.n509 B.n508 10.6151
R819 B.n508 B.n67 10.6151
R820 B.n504 B.n67 10.6151
R821 B.n504 B.n503 10.6151
R822 B.n503 B.n502 10.6151
R823 B.n502 B.n69 10.6151
R824 B.n498 B.n69 10.6151
R825 B.n498 B.n497 10.6151
R826 B.n497 B.n496 10.6151
R827 B.n496 B.n71 10.6151
R828 B.n492 B.n71 10.6151
R829 B.n492 B.n491 10.6151
R830 B.n491 B.n490 10.6151
R831 B.n490 B.n73 10.6151
R832 B.n486 B.n73 10.6151
R833 B.n486 B.n485 10.6151
R834 B.n485 B.n484 10.6151
R835 B.n484 B.n75 10.6151
R836 B.n480 B.n75 10.6151
R837 B.n480 B.n479 10.6151
R838 B.n479 B.n478 10.6151
R839 B.n478 B.n77 10.6151
R840 B.n474 B.n77 10.6151
R841 B.n474 B.n473 10.6151
R842 B.n473 B.n472 10.6151
R843 B.n472 B.n79 10.6151
R844 B.n468 B.n79 10.6151
R845 B.n468 B.n467 10.6151
R846 B.n467 B.n466 10.6151
R847 B.n466 B.n81 10.6151
R848 B.n462 B.n81 10.6151
R849 B.n462 B.n461 10.6151
R850 B.n461 B.n460 10.6151
R851 B.n456 B.n83 10.6151
R852 B.n456 B.n455 10.6151
R853 B.n455 B.n454 10.6151
R854 B.n454 B.n85 10.6151
R855 B.n450 B.n85 10.6151
R856 B.n450 B.n449 10.6151
R857 B.n449 B.n448 10.6151
R858 B.n448 B.n87 10.6151
R859 B.n444 B.n87 10.6151
R860 B.n444 B.n443 10.6151
R861 B.n443 B.n442 10.6151
R862 B.n442 B.n89 10.6151
R863 B.n438 B.n89 10.6151
R864 B.n438 B.n437 10.6151
R865 B.n437 B.n436 10.6151
R866 B.n436 B.n91 10.6151
R867 B.n432 B.n91 10.6151
R868 B.n432 B.n431 10.6151
R869 B.n431 B.n430 10.6151
R870 B.n430 B.n93 10.6151
R871 B.n426 B.n93 10.6151
R872 B.n426 B.n425 10.6151
R873 B.n425 B.n424 10.6151
R874 B.n424 B.n95 10.6151
R875 B.n420 B.n95 10.6151
R876 B.n420 B.n419 10.6151
R877 B.n419 B.n418 10.6151
R878 B.n418 B.n97 10.6151
R879 B.n414 B.n97 10.6151
R880 B.n414 B.n413 10.6151
R881 B.n413 B.n412 10.6151
R882 B.n412 B.n99 10.6151
R883 B.n408 B.n99 10.6151
R884 B.n177 B.n1 10.6151
R885 B.n180 B.n177 10.6151
R886 B.n181 B.n180 10.6151
R887 B.n182 B.n181 10.6151
R888 B.n182 B.n175 10.6151
R889 B.n186 B.n175 10.6151
R890 B.n187 B.n186 10.6151
R891 B.n188 B.n187 10.6151
R892 B.n188 B.n173 10.6151
R893 B.n192 B.n173 10.6151
R894 B.n193 B.n192 10.6151
R895 B.n194 B.n193 10.6151
R896 B.n194 B.n171 10.6151
R897 B.n198 B.n171 10.6151
R898 B.n199 B.n198 10.6151
R899 B.n200 B.n169 10.6151
R900 B.n204 B.n169 10.6151
R901 B.n205 B.n204 10.6151
R902 B.n206 B.n205 10.6151
R903 B.n206 B.n167 10.6151
R904 B.n210 B.n167 10.6151
R905 B.n211 B.n210 10.6151
R906 B.n212 B.n211 10.6151
R907 B.n212 B.n165 10.6151
R908 B.n216 B.n165 10.6151
R909 B.n217 B.n216 10.6151
R910 B.n218 B.n217 10.6151
R911 B.n218 B.n163 10.6151
R912 B.n222 B.n163 10.6151
R913 B.n223 B.n222 10.6151
R914 B.n224 B.n223 10.6151
R915 B.n224 B.n161 10.6151
R916 B.n228 B.n161 10.6151
R917 B.n229 B.n228 10.6151
R918 B.n230 B.n229 10.6151
R919 B.n230 B.n159 10.6151
R920 B.n234 B.n159 10.6151
R921 B.n235 B.n234 10.6151
R922 B.n236 B.n235 10.6151
R923 B.n236 B.n157 10.6151
R924 B.n240 B.n157 10.6151
R925 B.n241 B.n240 10.6151
R926 B.n242 B.n241 10.6151
R927 B.n242 B.n155 10.6151
R928 B.n246 B.n155 10.6151
R929 B.n247 B.n246 10.6151
R930 B.n248 B.n247 10.6151
R931 B.n248 B.n153 10.6151
R932 B.n252 B.n153 10.6151
R933 B.n253 B.n252 10.6151
R934 B.n254 B.n253 10.6151
R935 B.n254 B.n151 10.6151
R936 B.n258 B.n151 10.6151
R937 B.n259 B.n258 10.6151
R938 B.n260 B.n259 10.6151
R939 B.n260 B.n149 10.6151
R940 B.n264 B.n149 10.6151
R941 B.n265 B.n264 10.6151
R942 B.n266 B.n265 10.6151
R943 B.n266 B.n147 10.6151
R944 B.n270 B.n147 10.6151
R945 B.n271 B.n270 10.6151
R946 B.n272 B.n271 10.6151
R947 B.n272 B.n145 10.6151
R948 B.n276 B.n145 10.6151
R949 B.n277 B.n276 10.6151
R950 B.n278 B.n277 10.6151
R951 B.n278 B.n143 10.6151
R952 B.n282 B.n143 10.6151
R953 B.n283 B.n282 10.6151
R954 B.n284 B.n283 10.6151
R955 B.n284 B.n141 10.6151
R956 B.n288 B.n141 10.6151
R957 B.n289 B.n288 10.6151
R958 B.n290 B.n289 10.6151
R959 B.n290 B.n139 10.6151
R960 B.n294 B.n139 10.6151
R961 B.n297 B.n296 10.6151
R962 B.n297 B.n135 10.6151
R963 B.n301 B.n135 10.6151
R964 B.n302 B.n301 10.6151
R965 B.n303 B.n302 10.6151
R966 B.n303 B.n133 10.6151
R967 B.n307 B.n133 10.6151
R968 B.n308 B.n307 10.6151
R969 B.n312 B.n308 10.6151
R970 B.n316 B.n131 10.6151
R971 B.n317 B.n316 10.6151
R972 B.n318 B.n317 10.6151
R973 B.n318 B.n129 10.6151
R974 B.n322 B.n129 10.6151
R975 B.n323 B.n322 10.6151
R976 B.n324 B.n323 10.6151
R977 B.n324 B.n127 10.6151
R978 B.n328 B.n127 10.6151
R979 B.n329 B.n328 10.6151
R980 B.n330 B.n329 10.6151
R981 B.n330 B.n125 10.6151
R982 B.n334 B.n125 10.6151
R983 B.n335 B.n334 10.6151
R984 B.n336 B.n335 10.6151
R985 B.n336 B.n123 10.6151
R986 B.n340 B.n123 10.6151
R987 B.n341 B.n340 10.6151
R988 B.n342 B.n341 10.6151
R989 B.n342 B.n121 10.6151
R990 B.n346 B.n121 10.6151
R991 B.n347 B.n346 10.6151
R992 B.n348 B.n347 10.6151
R993 B.n348 B.n119 10.6151
R994 B.n352 B.n119 10.6151
R995 B.n353 B.n352 10.6151
R996 B.n354 B.n353 10.6151
R997 B.n354 B.n117 10.6151
R998 B.n358 B.n117 10.6151
R999 B.n359 B.n358 10.6151
R1000 B.n360 B.n359 10.6151
R1001 B.n360 B.n115 10.6151
R1002 B.n364 B.n115 10.6151
R1003 B.n365 B.n364 10.6151
R1004 B.n366 B.n365 10.6151
R1005 B.n366 B.n113 10.6151
R1006 B.n370 B.n113 10.6151
R1007 B.n371 B.n370 10.6151
R1008 B.n372 B.n371 10.6151
R1009 B.n372 B.n111 10.6151
R1010 B.n376 B.n111 10.6151
R1011 B.n377 B.n376 10.6151
R1012 B.n378 B.n377 10.6151
R1013 B.n378 B.n109 10.6151
R1014 B.n382 B.n109 10.6151
R1015 B.n383 B.n382 10.6151
R1016 B.n384 B.n383 10.6151
R1017 B.n384 B.n107 10.6151
R1018 B.n388 B.n107 10.6151
R1019 B.n389 B.n388 10.6151
R1020 B.n390 B.n389 10.6151
R1021 B.n390 B.n105 10.6151
R1022 B.n394 B.n105 10.6151
R1023 B.n395 B.n394 10.6151
R1024 B.n396 B.n395 10.6151
R1025 B.n396 B.n103 10.6151
R1026 B.n400 B.n103 10.6151
R1027 B.n401 B.n400 10.6151
R1028 B.n402 B.n401 10.6151
R1029 B.n402 B.n101 10.6151
R1030 B.n406 B.n101 10.6151
R1031 B.n407 B.n406 10.6151
R1032 B.n570 B.n569 8.74196
R1033 B.n552 B.n52 8.74196
R1034 B.n295 B.n294 8.74196
R1035 B.n311 B.n131 8.74196
R1036 B.n689 B.n0 8.11757
R1037 B.n689 B.n1 8.11757
R1038 B.n569 B.n568 1.87367
R1039 B.n52 B.n48 1.87367
R1040 B.n296 B.n295 1.87367
R1041 B.n312 B.n311 1.87367
R1042 VN VN.t1 666.908
R1043 VN VN.t0 620.347
R1044 VTAIL.n1 VTAIL.t2 53.0545
R1045 VTAIL.n3 VTAIL.t3 53.0542
R1046 VTAIL.n0 VTAIL.t1 53.0542
R1047 VTAIL.n2 VTAIL.t0 53.0542
R1048 VTAIL.n1 VTAIL.n0 31.4962
R1049 VTAIL.n3 VTAIL.n2 30.2634
R1050 VTAIL.n2 VTAIL.n1 1.08671
R1051 VTAIL VTAIL.n0 0.836707
R1052 VTAIL VTAIL.n3 0.2505
R1053 VDD2.n0 VDD2.t1 112.522
R1054 VDD2.n0 VDD2.t0 69.733
R1055 VDD2 VDD2.n0 0.366879
R1056 VP.n0 VP.t0 666.527
R1057 VP.n0 VP.t1 620.295
R1058 VP VP.n0 0.0516364
R1059 VDD1 VDD1.t0 113.355
R1060 VDD1 VDD1.t1 70.0994
C0 VN VTAIL 2.79339f
C1 VDD1 VTAIL 7.58339f
C2 VDD2 VTAIL 7.61799f
C3 VTAIL VP 2.80812f
C4 w_n1542_n4834# VN 2.12614f
C5 VDD1 w_n1542_n4834# 2.14448f
C6 VDD2 w_n1542_n4834# 2.15316f
C7 w_n1542_n4834# VP 2.31933f
C8 VN B 0.881971f
C9 VDD1 B 2.03114f
C10 VDD2 B 2.04852f
C11 B VP 1.19356f
C12 VDD1 VN 0.148771f
C13 VDD2 VN 3.5581f
C14 VN VP 6.09606f
C15 VDD2 VDD1 0.504209f
C16 VDD1 VP 3.67601f
C17 w_n1542_n4834# VTAIL 4.01265f
C18 VDD2 VP 0.27259f
C19 B VTAIL 4.33719f
C20 w_n1542_n4834# B 9.24245f
C21 VDD2 VSUBS 1.04038f
C22 VDD1 VSUBS 6.31852f
C23 VTAIL VSUBS 1.085911f
C24 VN VSUBS 9.12887f
C25 VP VSUBS 1.501439f
C26 B VSUBS 3.409681f
C27 w_n1542_n4834# VSUBS 91.058205f
C28 VDD1.t1 VSUBS 4.58382f
C29 VDD1.t0 VSUBS 5.619f
C30 VP.t0 VSUBS 3.99644f
C31 VP.t1 VSUBS 3.74071f
C32 VP.n0 VSUBS 7.129109f
C33 VDD2.t1 VSUBS 5.61549f
C34 VDD2.t0 VSUBS 4.61074f
C35 VDD2.n0 VSUBS 5.08484f
C36 VTAIL.t1 VSUBS 4.34865f
C37 VTAIL.n0 VSUBS 2.95879f
C38 VTAIL.t2 VSUBS 4.34866f
C39 VTAIL.n1 VSUBS 2.98092f
C40 VTAIL.t0 VSUBS 4.34865f
C41 VTAIL.n2 VSUBS 2.87177f
C42 VTAIL.t3 VSUBS 4.34865f
C43 VTAIL.n3 VSUBS 2.79772f
C44 VN.t0 VSUBS 3.64597f
C45 VN.t1 VSUBS 3.89957f
C46 B.n0 VSUBS 0.007189f
C47 B.n1 VSUBS 0.007189f
C48 B.n2 VSUBS 0.010632f
C49 B.n3 VSUBS 0.008148f
C50 B.n4 VSUBS 0.008148f
C51 B.n5 VSUBS 0.008148f
C52 B.n6 VSUBS 0.008148f
C53 B.n7 VSUBS 0.008148f
C54 B.n8 VSUBS 0.008148f
C55 B.n9 VSUBS 0.008148f
C56 B.n10 VSUBS 0.019442f
C57 B.n11 VSUBS 0.008148f
C58 B.n12 VSUBS 0.008148f
C59 B.n13 VSUBS 0.008148f
C60 B.n14 VSUBS 0.008148f
C61 B.n15 VSUBS 0.008148f
C62 B.n16 VSUBS 0.008148f
C63 B.n17 VSUBS 0.008148f
C64 B.n18 VSUBS 0.008148f
C65 B.n19 VSUBS 0.008148f
C66 B.n20 VSUBS 0.008148f
C67 B.n21 VSUBS 0.008148f
C68 B.n22 VSUBS 0.008148f
C69 B.n23 VSUBS 0.008148f
C70 B.n24 VSUBS 0.008148f
C71 B.n25 VSUBS 0.008148f
C72 B.n26 VSUBS 0.008148f
C73 B.n27 VSUBS 0.008148f
C74 B.n28 VSUBS 0.008148f
C75 B.n29 VSUBS 0.008148f
C76 B.n30 VSUBS 0.008148f
C77 B.n31 VSUBS 0.008148f
C78 B.n32 VSUBS 0.008148f
C79 B.n33 VSUBS 0.008148f
C80 B.n34 VSUBS 0.008148f
C81 B.n35 VSUBS 0.008148f