* NGSPICE file created from diff_pair_sample_0524.ext - technology: sky130A

.subckt diff_pair_sample_0524 VTAIL VN VP B VDD2 VDD1
X0 VDD1.t5 VP.t0 VTAIL.t7 B.t2 sky130_fd_pr__nfet_01v8 ad=3.8922 pd=20.74 as=1.6467 ps=10.31 w=9.98 l=3.21
X1 B.t19 B.t17 B.t18 B.t14 sky130_fd_pr__nfet_01v8 ad=3.8922 pd=20.74 as=0 ps=0 w=9.98 l=3.21
X2 VDD1.t4 VP.t1 VTAIL.t9 B.t4 sky130_fd_pr__nfet_01v8 ad=3.8922 pd=20.74 as=1.6467 ps=10.31 w=9.98 l=3.21
X3 VTAIL.t8 VP.t2 VDD1.t3 B.t1 sky130_fd_pr__nfet_01v8 ad=1.6467 pd=10.31 as=1.6467 ps=10.31 w=9.98 l=3.21
X4 VDD2.t5 VN.t0 VTAIL.t4 B.t4 sky130_fd_pr__nfet_01v8 ad=3.8922 pd=20.74 as=1.6467 ps=10.31 w=9.98 l=3.21
X5 VDD1.t2 VP.t3 VTAIL.t11 B.t3 sky130_fd_pr__nfet_01v8 ad=1.6467 pd=10.31 as=3.8922 ps=20.74 w=9.98 l=3.21
X6 B.t16 B.t13 B.t15 B.t14 sky130_fd_pr__nfet_01v8 ad=3.8922 pd=20.74 as=0 ps=0 w=9.98 l=3.21
X7 VTAIL.t10 VP.t4 VDD1.t1 B.t0 sky130_fd_pr__nfet_01v8 ad=1.6467 pd=10.31 as=1.6467 ps=10.31 w=9.98 l=3.21
X8 VDD2.t4 VN.t1 VTAIL.t3 B.t3 sky130_fd_pr__nfet_01v8 ad=1.6467 pd=10.31 as=3.8922 ps=20.74 w=9.98 l=3.21
X9 VTAIL.t1 VN.t2 VDD2.t3 B.t1 sky130_fd_pr__nfet_01v8 ad=1.6467 pd=10.31 as=1.6467 ps=10.31 w=9.98 l=3.21
X10 VDD2.t2 VN.t3 VTAIL.t5 B.t5 sky130_fd_pr__nfet_01v8 ad=1.6467 pd=10.31 as=3.8922 ps=20.74 w=9.98 l=3.21
X11 VDD1.t0 VP.t5 VTAIL.t6 B.t5 sky130_fd_pr__nfet_01v8 ad=1.6467 pd=10.31 as=3.8922 ps=20.74 w=9.98 l=3.21
X12 B.t12 B.t10 B.t11 B.t7 sky130_fd_pr__nfet_01v8 ad=3.8922 pd=20.74 as=0 ps=0 w=9.98 l=3.21
X13 VTAIL.t0 VN.t4 VDD2.t1 B.t0 sky130_fd_pr__nfet_01v8 ad=1.6467 pd=10.31 as=1.6467 ps=10.31 w=9.98 l=3.21
X14 B.t9 B.t6 B.t8 B.t7 sky130_fd_pr__nfet_01v8 ad=3.8922 pd=20.74 as=0 ps=0 w=9.98 l=3.21
X15 VDD2.t0 VN.t5 VTAIL.t2 B.t2 sky130_fd_pr__nfet_01v8 ad=3.8922 pd=20.74 as=1.6467 ps=10.31 w=9.98 l=3.21
R0 VP.n16 VP.n15 161.3
R1 VP.n17 VP.n12 161.3
R2 VP.n19 VP.n18 161.3
R3 VP.n20 VP.n11 161.3
R4 VP.n22 VP.n21 161.3
R5 VP.n23 VP.n10 161.3
R6 VP.n25 VP.n24 161.3
R7 VP.n49 VP.n48 161.3
R8 VP.n47 VP.n1 161.3
R9 VP.n46 VP.n45 161.3
R10 VP.n44 VP.n2 161.3
R11 VP.n43 VP.n42 161.3
R12 VP.n41 VP.n3 161.3
R13 VP.n40 VP.n39 161.3
R14 VP.n38 VP.n37 161.3
R15 VP.n36 VP.n5 161.3
R16 VP.n35 VP.n34 161.3
R17 VP.n33 VP.n6 161.3
R18 VP.n32 VP.n31 161.3
R19 VP.n30 VP.n7 161.3
R20 VP.n29 VP.n28 161.3
R21 VP.n14 VP.t0 107.742
R22 VP.n27 VP.n8 75.7718
R23 VP.n50 VP.n0 75.7718
R24 VP.n26 VP.n9 75.7718
R25 VP.n8 VP.t1 74.9282
R26 VP.n4 VP.t4 74.9282
R27 VP.n0 VP.t5 74.9282
R28 VP.n9 VP.t3 74.9282
R29 VP.n13 VP.t2 74.9282
R30 VP.n14 VP.n13 61.8768
R31 VP.n27 VP.n26 49.6203
R32 VP.n31 VP.n6 42.3581
R33 VP.n46 VP.n2 42.3581
R34 VP.n22 VP.n11 42.3581
R35 VP.n35 VP.n6 38.4631
R36 VP.n42 VP.n2 38.4631
R37 VP.n18 VP.n11 38.4631
R38 VP.n30 VP.n29 24.3439
R39 VP.n31 VP.n30 24.3439
R40 VP.n36 VP.n35 24.3439
R41 VP.n37 VP.n36 24.3439
R42 VP.n41 VP.n40 24.3439
R43 VP.n42 VP.n41 24.3439
R44 VP.n47 VP.n46 24.3439
R45 VP.n48 VP.n47 24.3439
R46 VP.n23 VP.n22 24.3439
R47 VP.n24 VP.n23 24.3439
R48 VP.n17 VP.n16 24.3439
R49 VP.n18 VP.n17 24.3439
R50 VP.n29 VP.n8 14.1197
R51 VP.n48 VP.n0 14.1197
R52 VP.n24 VP.n9 14.1197
R53 VP.n37 VP.n4 12.1722
R54 VP.n40 VP.n4 12.1722
R55 VP.n16 VP.n13 12.1722
R56 VP.n15 VP.n14 4.19698
R57 VP.n26 VP.n25 0.355081
R58 VP.n28 VP.n27 0.355081
R59 VP.n50 VP.n49 0.355081
R60 VP VP.n50 0.26685
R61 VP.n15 VP.n12 0.189894
R62 VP.n19 VP.n12 0.189894
R63 VP.n20 VP.n19 0.189894
R64 VP.n21 VP.n20 0.189894
R65 VP.n21 VP.n10 0.189894
R66 VP.n25 VP.n10 0.189894
R67 VP.n28 VP.n7 0.189894
R68 VP.n32 VP.n7 0.189894
R69 VP.n33 VP.n32 0.189894
R70 VP.n34 VP.n33 0.189894
R71 VP.n34 VP.n5 0.189894
R72 VP.n38 VP.n5 0.189894
R73 VP.n39 VP.n38 0.189894
R74 VP.n39 VP.n3 0.189894
R75 VP.n43 VP.n3 0.189894
R76 VP.n44 VP.n43 0.189894
R77 VP.n45 VP.n44 0.189894
R78 VP.n45 VP.n1 0.189894
R79 VP.n49 VP.n1 0.189894
R80 VTAIL.n218 VTAIL.n170 289.615
R81 VTAIL.n50 VTAIL.n2 289.615
R82 VTAIL.n164 VTAIL.n116 289.615
R83 VTAIL.n108 VTAIL.n60 289.615
R84 VTAIL.n186 VTAIL.n185 185
R85 VTAIL.n191 VTAIL.n190 185
R86 VTAIL.n193 VTAIL.n192 185
R87 VTAIL.n182 VTAIL.n181 185
R88 VTAIL.n199 VTAIL.n198 185
R89 VTAIL.n201 VTAIL.n200 185
R90 VTAIL.n178 VTAIL.n177 185
R91 VTAIL.n208 VTAIL.n207 185
R92 VTAIL.n209 VTAIL.n176 185
R93 VTAIL.n211 VTAIL.n210 185
R94 VTAIL.n174 VTAIL.n173 185
R95 VTAIL.n217 VTAIL.n216 185
R96 VTAIL.n219 VTAIL.n218 185
R97 VTAIL.n18 VTAIL.n17 185
R98 VTAIL.n23 VTAIL.n22 185
R99 VTAIL.n25 VTAIL.n24 185
R100 VTAIL.n14 VTAIL.n13 185
R101 VTAIL.n31 VTAIL.n30 185
R102 VTAIL.n33 VTAIL.n32 185
R103 VTAIL.n10 VTAIL.n9 185
R104 VTAIL.n40 VTAIL.n39 185
R105 VTAIL.n41 VTAIL.n8 185
R106 VTAIL.n43 VTAIL.n42 185
R107 VTAIL.n6 VTAIL.n5 185
R108 VTAIL.n49 VTAIL.n48 185
R109 VTAIL.n51 VTAIL.n50 185
R110 VTAIL.n165 VTAIL.n164 185
R111 VTAIL.n163 VTAIL.n162 185
R112 VTAIL.n120 VTAIL.n119 185
R113 VTAIL.n157 VTAIL.n156 185
R114 VTAIL.n155 VTAIL.n122 185
R115 VTAIL.n154 VTAIL.n153 185
R116 VTAIL.n125 VTAIL.n123 185
R117 VTAIL.n148 VTAIL.n147 185
R118 VTAIL.n146 VTAIL.n145 185
R119 VTAIL.n129 VTAIL.n128 185
R120 VTAIL.n140 VTAIL.n139 185
R121 VTAIL.n138 VTAIL.n137 185
R122 VTAIL.n133 VTAIL.n132 185
R123 VTAIL.n109 VTAIL.n108 185
R124 VTAIL.n107 VTAIL.n106 185
R125 VTAIL.n64 VTAIL.n63 185
R126 VTAIL.n101 VTAIL.n100 185
R127 VTAIL.n99 VTAIL.n66 185
R128 VTAIL.n98 VTAIL.n97 185
R129 VTAIL.n69 VTAIL.n67 185
R130 VTAIL.n92 VTAIL.n91 185
R131 VTAIL.n90 VTAIL.n89 185
R132 VTAIL.n73 VTAIL.n72 185
R133 VTAIL.n84 VTAIL.n83 185
R134 VTAIL.n82 VTAIL.n81 185
R135 VTAIL.n77 VTAIL.n76 185
R136 VTAIL.n187 VTAIL.t3 149.524
R137 VTAIL.n19 VTAIL.t6 149.524
R138 VTAIL.n134 VTAIL.t11 149.524
R139 VTAIL.n78 VTAIL.t5 149.524
R140 VTAIL.n191 VTAIL.n185 104.615
R141 VTAIL.n192 VTAIL.n191 104.615
R142 VTAIL.n192 VTAIL.n181 104.615
R143 VTAIL.n199 VTAIL.n181 104.615
R144 VTAIL.n200 VTAIL.n199 104.615
R145 VTAIL.n200 VTAIL.n177 104.615
R146 VTAIL.n208 VTAIL.n177 104.615
R147 VTAIL.n209 VTAIL.n208 104.615
R148 VTAIL.n210 VTAIL.n209 104.615
R149 VTAIL.n210 VTAIL.n173 104.615
R150 VTAIL.n217 VTAIL.n173 104.615
R151 VTAIL.n218 VTAIL.n217 104.615
R152 VTAIL.n23 VTAIL.n17 104.615
R153 VTAIL.n24 VTAIL.n23 104.615
R154 VTAIL.n24 VTAIL.n13 104.615
R155 VTAIL.n31 VTAIL.n13 104.615
R156 VTAIL.n32 VTAIL.n31 104.615
R157 VTAIL.n32 VTAIL.n9 104.615
R158 VTAIL.n40 VTAIL.n9 104.615
R159 VTAIL.n41 VTAIL.n40 104.615
R160 VTAIL.n42 VTAIL.n41 104.615
R161 VTAIL.n42 VTAIL.n5 104.615
R162 VTAIL.n49 VTAIL.n5 104.615
R163 VTAIL.n50 VTAIL.n49 104.615
R164 VTAIL.n164 VTAIL.n163 104.615
R165 VTAIL.n163 VTAIL.n119 104.615
R166 VTAIL.n156 VTAIL.n119 104.615
R167 VTAIL.n156 VTAIL.n155 104.615
R168 VTAIL.n155 VTAIL.n154 104.615
R169 VTAIL.n154 VTAIL.n123 104.615
R170 VTAIL.n147 VTAIL.n123 104.615
R171 VTAIL.n147 VTAIL.n146 104.615
R172 VTAIL.n146 VTAIL.n128 104.615
R173 VTAIL.n139 VTAIL.n128 104.615
R174 VTAIL.n139 VTAIL.n138 104.615
R175 VTAIL.n138 VTAIL.n132 104.615
R176 VTAIL.n108 VTAIL.n107 104.615
R177 VTAIL.n107 VTAIL.n63 104.615
R178 VTAIL.n100 VTAIL.n63 104.615
R179 VTAIL.n100 VTAIL.n99 104.615
R180 VTAIL.n99 VTAIL.n98 104.615
R181 VTAIL.n98 VTAIL.n67 104.615
R182 VTAIL.n91 VTAIL.n67 104.615
R183 VTAIL.n91 VTAIL.n90 104.615
R184 VTAIL.n90 VTAIL.n72 104.615
R185 VTAIL.n83 VTAIL.n72 104.615
R186 VTAIL.n83 VTAIL.n82 104.615
R187 VTAIL.n82 VTAIL.n76 104.615
R188 VTAIL.t3 VTAIL.n185 52.3082
R189 VTAIL.t6 VTAIL.n17 52.3082
R190 VTAIL.t11 VTAIL.n132 52.3082
R191 VTAIL.t5 VTAIL.n76 52.3082
R192 VTAIL.n115 VTAIL.n114 46.3494
R193 VTAIL.n59 VTAIL.n58 46.3494
R194 VTAIL.n1 VTAIL.n0 46.3492
R195 VTAIL.n57 VTAIL.n56 46.3492
R196 VTAIL.n223 VTAIL.n222 32.5732
R197 VTAIL.n55 VTAIL.n54 32.5732
R198 VTAIL.n169 VTAIL.n168 32.5732
R199 VTAIL.n113 VTAIL.n112 32.5732
R200 VTAIL.n59 VTAIL.n57 27.0738
R201 VTAIL.n223 VTAIL.n169 24.0221
R202 VTAIL.n211 VTAIL.n176 13.1884
R203 VTAIL.n43 VTAIL.n8 13.1884
R204 VTAIL.n157 VTAIL.n122 13.1884
R205 VTAIL.n101 VTAIL.n66 13.1884
R206 VTAIL.n207 VTAIL.n206 12.8005
R207 VTAIL.n212 VTAIL.n174 12.8005
R208 VTAIL.n39 VTAIL.n38 12.8005
R209 VTAIL.n44 VTAIL.n6 12.8005
R210 VTAIL.n158 VTAIL.n120 12.8005
R211 VTAIL.n153 VTAIL.n124 12.8005
R212 VTAIL.n102 VTAIL.n64 12.8005
R213 VTAIL.n97 VTAIL.n68 12.8005
R214 VTAIL.n205 VTAIL.n178 12.0247
R215 VTAIL.n216 VTAIL.n215 12.0247
R216 VTAIL.n37 VTAIL.n10 12.0247
R217 VTAIL.n48 VTAIL.n47 12.0247
R218 VTAIL.n162 VTAIL.n161 12.0247
R219 VTAIL.n152 VTAIL.n125 12.0247
R220 VTAIL.n106 VTAIL.n105 12.0247
R221 VTAIL.n96 VTAIL.n69 12.0247
R222 VTAIL.n202 VTAIL.n201 11.249
R223 VTAIL.n219 VTAIL.n172 11.249
R224 VTAIL.n34 VTAIL.n33 11.249
R225 VTAIL.n51 VTAIL.n4 11.249
R226 VTAIL.n165 VTAIL.n118 11.249
R227 VTAIL.n149 VTAIL.n148 11.249
R228 VTAIL.n109 VTAIL.n62 11.249
R229 VTAIL.n93 VTAIL.n92 11.249
R230 VTAIL.n198 VTAIL.n180 10.4732
R231 VTAIL.n220 VTAIL.n170 10.4732
R232 VTAIL.n30 VTAIL.n12 10.4732
R233 VTAIL.n52 VTAIL.n2 10.4732
R234 VTAIL.n166 VTAIL.n116 10.4732
R235 VTAIL.n145 VTAIL.n127 10.4732
R236 VTAIL.n110 VTAIL.n60 10.4732
R237 VTAIL.n89 VTAIL.n71 10.4732
R238 VTAIL.n187 VTAIL.n186 10.2747
R239 VTAIL.n19 VTAIL.n18 10.2747
R240 VTAIL.n134 VTAIL.n133 10.2747
R241 VTAIL.n78 VTAIL.n77 10.2747
R242 VTAIL.n197 VTAIL.n182 9.69747
R243 VTAIL.n29 VTAIL.n14 9.69747
R244 VTAIL.n144 VTAIL.n129 9.69747
R245 VTAIL.n88 VTAIL.n73 9.69747
R246 VTAIL.n222 VTAIL.n221 9.45567
R247 VTAIL.n54 VTAIL.n53 9.45567
R248 VTAIL.n168 VTAIL.n167 9.45567
R249 VTAIL.n112 VTAIL.n111 9.45567
R250 VTAIL.n221 VTAIL.n220 9.3005
R251 VTAIL.n172 VTAIL.n171 9.3005
R252 VTAIL.n215 VTAIL.n214 9.3005
R253 VTAIL.n213 VTAIL.n212 9.3005
R254 VTAIL.n189 VTAIL.n188 9.3005
R255 VTAIL.n184 VTAIL.n183 9.3005
R256 VTAIL.n195 VTAIL.n194 9.3005
R257 VTAIL.n197 VTAIL.n196 9.3005
R258 VTAIL.n180 VTAIL.n179 9.3005
R259 VTAIL.n203 VTAIL.n202 9.3005
R260 VTAIL.n205 VTAIL.n204 9.3005
R261 VTAIL.n206 VTAIL.n175 9.3005
R262 VTAIL.n53 VTAIL.n52 9.3005
R263 VTAIL.n4 VTAIL.n3 9.3005
R264 VTAIL.n47 VTAIL.n46 9.3005
R265 VTAIL.n45 VTAIL.n44 9.3005
R266 VTAIL.n21 VTAIL.n20 9.3005
R267 VTAIL.n16 VTAIL.n15 9.3005
R268 VTAIL.n27 VTAIL.n26 9.3005
R269 VTAIL.n29 VTAIL.n28 9.3005
R270 VTAIL.n12 VTAIL.n11 9.3005
R271 VTAIL.n35 VTAIL.n34 9.3005
R272 VTAIL.n37 VTAIL.n36 9.3005
R273 VTAIL.n38 VTAIL.n7 9.3005
R274 VTAIL.n136 VTAIL.n135 9.3005
R275 VTAIL.n131 VTAIL.n130 9.3005
R276 VTAIL.n142 VTAIL.n141 9.3005
R277 VTAIL.n144 VTAIL.n143 9.3005
R278 VTAIL.n127 VTAIL.n126 9.3005
R279 VTAIL.n150 VTAIL.n149 9.3005
R280 VTAIL.n152 VTAIL.n151 9.3005
R281 VTAIL.n124 VTAIL.n121 9.3005
R282 VTAIL.n167 VTAIL.n166 9.3005
R283 VTAIL.n118 VTAIL.n117 9.3005
R284 VTAIL.n161 VTAIL.n160 9.3005
R285 VTAIL.n159 VTAIL.n158 9.3005
R286 VTAIL.n80 VTAIL.n79 9.3005
R287 VTAIL.n75 VTAIL.n74 9.3005
R288 VTAIL.n86 VTAIL.n85 9.3005
R289 VTAIL.n88 VTAIL.n87 9.3005
R290 VTAIL.n71 VTAIL.n70 9.3005
R291 VTAIL.n94 VTAIL.n93 9.3005
R292 VTAIL.n96 VTAIL.n95 9.3005
R293 VTAIL.n68 VTAIL.n65 9.3005
R294 VTAIL.n111 VTAIL.n110 9.3005
R295 VTAIL.n62 VTAIL.n61 9.3005
R296 VTAIL.n105 VTAIL.n104 9.3005
R297 VTAIL.n103 VTAIL.n102 9.3005
R298 VTAIL.n194 VTAIL.n193 8.92171
R299 VTAIL.n26 VTAIL.n25 8.92171
R300 VTAIL.n141 VTAIL.n140 8.92171
R301 VTAIL.n85 VTAIL.n84 8.92171
R302 VTAIL.n190 VTAIL.n184 8.14595
R303 VTAIL.n22 VTAIL.n16 8.14595
R304 VTAIL.n137 VTAIL.n131 8.14595
R305 VTAIL.n81 VTAIL.n75 8.14595
R306 VTAIL.n189 VTAIL.n186 7.3702
R307 VTAIL.n21 VTAIL.n18 7.3702
R308 VTAIL.n136 VTAIL.n133 7.3702
R309 VTAIL.n80 VTAIL.n77 7.3702
R310 VTAIL.n190 VTAIL.n189 5.81868
R311 VTAIL.n22 VTAIL.n21 5.81868
R312 VTAIL.n137 VTAIL.n136 5.81868
R313 VTAIL.n81 VTAIL.n80 5.81868
R314 VTAIL.n193 VTAIL.n184 5.04292
R315 VTAIL.n25 VTAIL.n16 5.04292
R316 VTAIL.n140 VTAIL.n131 5.04292
R317 VTAIL.n84 VTAIL.n75 5.04292
R318 VTAIL.n194 VTAIL.n182 4.26717
R319 VTAIL.n26 VTAIL.n14 4.26717
R320 VTAIL.n141 VTAIL.n129 4.26717
R321 VTAIL.n85 VTAIL.n73 4.26717
R322 VTAIL.n198 VTAIL.n197 3.49141
R323 VTAIL.n222 VTAIL.n170 3.49141
R324 VTAIL.n30 VTAIL.n29 3.49141
R325 VTAIL.n54 VTAIL.n2 3.49141
R326 VTAIL.n168 VTAIL.n116 3.49141
R327 VTAIL.n145 VTAIL.n144 3.49141
R328 VTAIL.n112 VTAIL.n60 3.49141
R329 VTAIL.n89 VTAIL.n88 3.49141
R330 VTAIL.n113 VTAIL.n59 3.05222
R331 VTAIL.n169 VTAIL.n115 3.05222
R332 VTAIL.n57 VTAIL.n55 3.05222
R333 VTAIL.n188 VTAIL.n187 2.84303
R334 VTAIL.n20 VTAIL.n19 2.84303
R335 VTAIL.n135 VTAIL.n134 2.84303
R336 VTAIL.n79 VTAIL.n78 2.84303
R337 VTAIL.n201 VTAIL.n180 2.71565
R338 VTAIL.n220 VTAIL.n219 2.71565
R339 VTAIL.n33 VTAIL.n12 2.71565
R340 VTAIL.n52 VTAIL.n51 2.71565
R341 VTAIL.n166 VTAIL.n165 2.71565
R342 VTAIL.n148 VTAIL.n127 2.71565
R343 VTAIL.n110 VTAIL.n109 2.71565
R344 VTAIL.n92 VTAIL.n71 2.71565
R345 VTAIL VTAIL.n223 2.2311
R346 VTAIL.n115 VTAIL.n113 1.99619
R347 VTAIL.n55 VTAIL.n1 1.99619
R348 VTAIL.n0 VTAIL.t2 1.98447
R349 VTAIL.n0 VTAIL.t1 1.98447
R350 VTAIL.n56 VTAIL.t9 1.98447
R351 VTAIL.n56 VTAIL.t10 1.98447
R352 VTAIL.n114 VTAIL.t7 1.98447
R353 VTAIL.n114 VTAIL.t8 1.98447
R354 VTAIL.n58 VTAIL.t4 1.98447
R355 VTAIL.n58 VTAIL.t0 1.98447
R356 VTAIL.n202 VTAIL.n178 1.93989
R357 VTAIL.n216 VTAIL.n172 1.93989
R358 VTAIL.n34 VTAIL.n10 1.93989
R359 VTAIL.n48 VTAIL.n4 1.93989
R360 VTAIL.n162 VTAIL.n118 1.93989
R361 VTAIL.n149 VTAIL.n125 1.93989
R362 VTAIL.n106 VTAIL.n62 1.93989
R363 VTAIL.n93 VTAIL.n69 1.93989
R364 VTAIL.n207 VTAIL.n205 1.16414
R365 VTAIL.n215 VTAIL.n174 1.16414
R366 VTAIL.n39 VTAIL.n37 1.16414
R367 VTAIL.n47 VTAIL.n6 1.16414
R368 VTAIL.n161 VTAIL.n120 1.16414
R369 VTAIL.n153 VTAIL.n152 1.16414
R370 VTAIL.n105 VTAIL.n64 1.16414
R371 VTAIL.n97 VTAIL.n96 1.16414
R372 VTAIL VTAIL.n1 0.821621
R373 VTAIL.n206 VTAIL.n176 0.388379
R374 VTAIL.n212 VTAIL.n211 0.388379
R375 VTAIL.n38 VTAIL.n8 0.388379
R376 VTAIL.n44 VTAIL.n43 0.388379
R377 VTAIL.n158 VTAIL.n157 0.388379
R378 VTAIL.n124 VTAIL.n122 0.388379
R379 VTAIL.n102 VTAIL.n101 0.388379
R380 VTAIL.n68 VTAIL.n66 0.388379
R381 VTAIL.n188 VTAIL.n183 0.155672
R382 VTAIL.n195 VTAIL.n183 0.155672
R383 VTAIL.n196 VTAIL.n195 0.155672
R384 VTAIL.n196 VTAIL.n179 0.155672
R385 VTAIL.n203 VTAIL.n179 0.155672
R386 VTAIL.n204 VTAIL.n203 0.155672
R387 VTAIL.n204 VTAIL.n175 0.155672
R388 VTAIL.n213 VTAIL.n175 0.155672
R389 VTAIL.n214 VTAIL.n213 0.155672
R390 VTAIL.n214 VTAIL.n171 0.155672
R391 VTAIL.n221 VTAIL.n171 0.155672
R392 VTAIL.n20 VTAIL.n15 0.155672
R393 VTAIL.n27 VTAIL.n15 0.155672
R394 VTAIL.n28 VTAIL.n27 0.155672
R395 VTAIL.n28 VTAIL.n11 0.155672
R396 VTAIL.n35 VTAIL.n11 0.155672
R397 VTAIL.n36 VTAIL.n35 0.155672
R398 VTAIL.n36 VTAIL.n7 0.155672
R399 VTAIL.n45 VTAIL.n7 0.155672
R400 VTAIL.n46 VTAIL.n45 0.155672
R401 VTAIL.n46 VTAIL.n3 0.155672
R402 VTAIL.n53 VTAIL.n3 0.155672
R403 VTAIL.n167 VTAIL.n117 0.155672
R404 VTAIL.n160 VTAIL.n117 0.155672
R405 VTAIL.n160 VTAIL.n159 0.155672
R406 VTAIL.n159 VTAIL.n121 0.155672
R407 VTAIL.n151 VTAIL.n121 0.155672
R408 VTAIL.n151 VTAIL.n150 0.155672
R409 VTAIL.n150 VTAIL.n126 0.155672
R410 VTAIL.n143 VTAIL.n126 0.155672
R411 VTAIL.n143 VTAIL.n142 0.155672
R412 VTAIL.n142 VTAIL.n130 0.155672
R413 VTAIL.n135 VTAIL.n130 0.155672
R414 VTAIL.n111 VTAIL.n61 0.155672
R415 VTAIL.n104 VTAIL.n61 0.155672
R416 VTAIL.n104 VTAIL.n103 0.155672
R417 VTAIL.n103 VTAIL.n65 0.155672
R418 VTAIL.n95 VTAIL.n65 0.155672
R419 VTAIL.n95 VTAIL.n94 0.155672
R420 VTAIL.n94 VTAIL.n70 0.155672
R421 VTAIL.n87 VTAIL.n70 0.155672
R422 VTAIL.n87 VTAIL.n86 0.155672
R423 VTAIL.n86 VTAIL.n74 0.155672
R424 VTAIL.n79 VTAIL.n74 0.155672
R425 VDD1.n48 VDD1.n0 289.615
R426 VDD1.n101 VDD1.n53 289.615
R427 VDD1.n49 VDD1.n48 185
R428 VDD1.n47 VDD1.n46 185
R429 VDD1.n4 VDD1.n3 185
R430 VDD1.n41 VDD1.n40 185
R431 VDD1.n39 VDD1.n6 185
R432 VDD1.n38 VDD1.n37 185
R433 VDD1.n9 VDD1.n7 185
R434 VDD1.n32 VDD1.n31 185
R435 VDD1.n30 VDD1.n29 185
R436 VDD1.n13 VDD1.n12 185
R437 VDD1.n24 VDD1.n23 185
R438 VDD1.n22 VDD1.n21 185
R439 VDD1.n17 VDD1.n16 185
R440 VDD1.n69 VDD1.n68 185
R441 VDD1.n74 VDD1.n73 185
R442 VDD1.n76 VDD1.n75 185
R443 VDD1.n65 VDD1.n64 185
R444 VDD1.n82 VDD1.n81 185
R445 VDD1.n84 VDD1.n83 185
R446 VDD1.n61 VDD1.n60 185
R447 VDD1.n91 VDD1.n90 185
R448 VDD1.n92 VDD1.n59 185
R449 VDD1.n94 VDD1.n93 185
R450 VDD1.n57 VDD1.n56 185
R451 VDD1.n100 VDD1.n99 185
R452 VDD1.n102 VDD1.n101 185
R453 VDD1.n18 VDD1.t5 149.524
R454 VDD1.n70 VDD1.t4 149.524
R455 VDD1.n48 VDD1.n47 104.615
R456 VDD1.n47 VDD1.n3 104.615
R457 VDD1.n40 VDD1.n3 104.615
R458 VDD1.n40 VDD1.n39 104.615
R459 VDD1.n39 VDD1.n38 104.615
R460 VDD1.n38 VDD1.n7 104.615
R461 VDD1.n31 VDD1.n7 104.615
R462 VDD1.n31 VDD1.n30 104.615
R463 VDD1.n30 VDD1.n12 104.615
R464 VDD1.n23 VDD1.n12 104.615
R465 VDD1.n23 VDD1.n22 104.615
R466 VDD1.n22 VDD1.n16 104.615
R467 VDD1.n74 VDD1.n68 104.615
R468 VDD1.n75 VDD1.n74 104.615
R469 VDD1.n75 VDD1.n64 104.615
R470 VDD1.n82 VDD1.n64 104.615
R471 VDD1.n83 VDD1.n82 104.615
R472 VDD1.n83 VDD1.n60 104.615
R473 VDD1.n91 VDD1.n60 104.615
R474 VDD1.n92 VDD1.n91 104.615
R475 VDD1.n93 VDD1.n92 104.615
R476 VDD1.n93 VDD1.n56 104.615
R477 VDD1.n100 VDD1.n56 104.615
R478 VDD1.n101 VDD1.n100 104.615
R479 VDD1.n107 VDD1.n106 63.7356
R480 VDD1.n109 VDD1.n108 63.028
R481 VDD1.t5 VDD1.n16 52.3082
R482 VDD1.t4 VDD1.n68 52.3082
R483 VDD1 VDD1.n52 51.599
R484 VDD1.n107 VDD1.n105 51.4855
R485 VDD1.n109 VDD1.n107 44.3457
R486 VDD1.n41 VDD1.n6 13.1884
R487 VDD1.n94 VDD1.n59 13.1884
R488 VDD1.n42 VDD1.n4 12.8005
R489 VDD1.n37 VDD1.n8 12.8005
R490 VDD1.n90 VDD1.n89 12.8005
R491 VDD1.n95 VDD1.n57 12.8005
R492 VDD1.n46 VDD1.n45 12.0247
R493 VDD1.n36 VDD1.n9 12.0247
R494 VDD1.n88 VDD1.n61 12.0247
R495 VDD1.n99 VDD1.n98 12.0247
R496 VDD1.n49 VDD1.n2 11.249
R497 VDD1.n33 VDD1.n32 11.249
R498 VDD1.n85 VDD1.n84 11.249
R499 VDD1.n102 VDD1.n55 11.249
R500 VDD1.n50 VDD1.n0 10.4732
R501 VDD1.n29 VDD1.n11 10.4732
R502 VDD1.n81 VDD1.n63 10.4732
R503 VDD1.n103 VDD1.n53 10.4732
R504 VDD1.n18 VDD1.n17 10.2747
R505 VDD1.n70 VDD1.n69 10.2747
R506 VDD1.n28 VDD1.n13 9.69747
R507 VDD1.n80 VDD1.n65 9.69747
R508 VDD1.n52 VDD1.n51 9.45567
R509 VDD1.n105 VDD1.n104 9.45567
R510 VDD1.n20 VDD1.n19 9.3005
R511 VDD1.n15 VDD1.n14 9.3005
R512 VDD1.n26 VDD1.n25 9.3005
R513 VDD1.n28 VDD1.n27 9.3005
R514 VDD1.n11 VDD1.n10 9.3005
R515 VDD1.n34 VDD1.n33 9.3005
R516 VDD1.n36 VDD1.n35 9.3005
R517 VDD1.n8 VDD1.n5 9.3005
R518 VDD1.n51 VDD1.n50 9.3005
R519 VDD1.n2 VDD1.n1 9.3005
R520 VDD1.n45 VDD1.n44 9.3005
R521 VDD1.n43 VDD1.n42 9.3005
R522 VDD1.n104 VDD1.n103 9.3005
R523 VDD1.n55 VDD1.n54 9.3005
R524 VDD1.n98 VDD1.n97 9.3005
R525 VDD1.n96 VDD1.n95 9.3005
R526 VDD1.n72 VDD1.n71 9.3005
R527 VDD1.n67 VDD1.n66 9.3005
R528 VDD1.n78 VDD1.n77 9.3005
R529 VDD1.n80 VDD1.n79 9.3005
R530 VDD1.n63 VDD1.n62 9.3005
R531 VDD1.n86 VDD1.n85 9.3005
R532 VDD1.n88 VDD1.n87 9.3005
R533 VDD1.n89 VDD1.n58 9.3005
R534 VDD1.n25 VDD1.n24 8.92171
R535 VDD1.n77 VDD1.n76 8.92171
R536 VDD1.n21 VDD1.n15 8.14595
R537 VDD1.n73 VDD1.n67 8.14595
R538 VDD1.n20 VDD1.n17 7.3702
R539 VDD1.n72 VDD1.n69 7.3702
R540 VDD1.n21 VDD1.n20 5.81868
R541 VDD1.n73 VDD1.n72 5.81868
R542 VDD1.n24 VDD1.n15 5.04292
R543 VDD1.n76 VDD1.n67 5.04292
R544 VDD1.n25 VDD1.n13 4.26717
R545 VDD1.n77 VDD1.n65 4.26717
R546 VDD1.n52 VDD1.n0 3.49141
R547 VDD1.n29 VDD1.n28 3.49141
R548 VDD1.n81 VDD1.n80 3.49141
R549 VDD1.n105 VDD1.n53 3.49141
R550 VDD1.n19 VDD1.n18 2.84303
R551 VDD1.n71 VDD1.n70 2.84303
R552 VDD1.n50 VDD1.n49 2.71565
R553 VDD1.n32 VDD1.n11 2.71565
R554 VDD1.n84 VDD1.n63 2.71565
R555 VDD1.n103 VDD1.n102 2.71565
R556 VDD1.n108 VDD1.t3 1.98447
R557 VDD1.n108 VDD1.t2 1.98447
R558 VDD1.n106 VDD1.t1 1.98447
R559 VDD1.n106 VDD1.t0 1.98447
R560 VDD1.n46 VDD1.n2 1.93989
R561 VDD1.n33 VDD1.n9 1.93989
R562 VDD1.n85 VDD1.n61 1.93989
R563 VDD1.n99 VDD1.n55 1.93989
R564 VDD1.n45 VDD1.n4 1.16414
R565 VDD1.n37 VDD1.n36 1.16414
R566 VDD1.n90 VDD1.n88 1.16414
R567 VDD1.n98 VDD1.n57 1.16414
R568 VDD1 VDD1.n109 0.705241
R569 VDD1.n42 VDD1.n41 0.388379
R570 VDD1.n8 VDD1.n6 0.388379
R571 VDD1.n89 VDD1.n59 0.388379
R572 VDD1.n95 VDD1.n94 0.388379
R573 VDD1.n51 VDD1.n1 0.155672
R574 VDD1.n44 VDD1.n1 0.155672
R575 VDD1.n44 VDD1.n43 0.155672
R576 VDD1.n43 VDD1.n5 0.155672
R577 VDD1.n35 VDD1.n5 0.155672
R578 VDD1.n35 VDD1.n34 0.155672
R579 VDD1.n34 VDD1.n10 0.155672
R580 VDD1.n27 VDD1.n10 0.155672
R581 VDD1.n27 VDD1.n26 0.155672
R582 VDD1.n26 VDD1.n14 0.155672
R583 VDD1.n19 VDD1.n14 0.155672
R584 VDD1.n71 VDD1.n66 0.155672
R585 VDD1.n78 VDD1.n66 0.155672
R586 VDD1.n79 VDD1.n78 0.155672
R587 VDD1.n79 VDD1.n62 0.155672
R588 VDD1.n86 VDD1.n62 0.155672
R589 VDD1.n87 VDD1.n86 0.155672
R590 VDD1.n87 VDD1.n58 0.155672
R591 VDD1.n96 VDD1.n58 0.155672
R592 VDD1.n97 VDD1.n96 0.155672
R593 VDD1.n97 VDD1.n54 0.155672
R594 VDD1.n104 VDD1.n54 0.155672
R595 B.n814 B.n813 585
R596 B.n815 B.n814 585
R597 B.n297 B.n132 585
R598 B.n296 B.n295 585
R599 B.n294 B.n293 585
R600 B.n292 B.n291 585
R601 B.n290 B.n289 585
R602 B.n288 B.n287 585
R603 B.n286 B.n285 585
R604 B.n284 B.n283 585
R605 B.n282 B.n281 585
R606 B.n280 B.n279 585
R607 B.n278 B.n277 585
R608 B.n276 B.n275 585
R609 B.n274 B.n273 585
R610 B.n272 B.n271 585
R611 B.n270 B.n269 585
R612 B.n268 B.n267 585
R613 B.n266 B.n265 585
R614 B.n264 B.n263 585
R615 B.n262 B.n261 585
R616 B.n260 B.n259 585
R617 B.n258 B.n257 585
R618 B.n256 B.n255 585
R619 B.n254 B.n253 585
R620 B.n252 B.n251 585
R621 B.n250 B.n249 585
R622 B.n248 B.n247 585
R623 B.n246 B.n245 585
R624 B.n244 B.n243 585
R625 B.n242 B.n241 585
R626 B.n240 B.n239 585
R627 B.n238 B.n237 585
R628 B.n236 B.n235 585
R629 B.n234 B.n233 585
R630 B.n232 B.n231 585
R631 B.n230 B.n229 585
R632 B.n227 B.n226 585
R633 B.n225 B.n224 585
R634 B.n223 B.n222 585
R635 B.n221 B.n220 585
R636 B.n219 B.n218 585
R637 B.n217 B.n216 585
R638 B.n215 B.n214 585
R639 B.n213 B.n212 585
R640 B.n211 B.n210 585
R641 B.n209 B.n208 585
R642 B.n207 B.n206 585
R643 B.n205 B.n204 585
R644 B.n203 B.n202 585
R645 B.n201 B.n200 585
R646 B.n199 B.n198 585
R647 B.n197 B.n196 585
R648 B.n195 B.n194 585
R649 B.n193 B.n192 585
R650 B.n191 B.n190 585
R651 B.n189 B.n188 585
R652 B.n187 B.n186 585
R653 B.n185 B.n184 585
R654 B.n183 B.n182 585
R655 B.n181 B.n180 585
R656 B.n179 B.n178 585
R657 B.n177 B.n176 585
R658 B.n175 B.n174 585
R659 B.n173 B.n172 585
R660 B.n171 B.n170 585
R661 B.n169 B.n168 585
R662 B.n167 B.n166 585
R663 B.n165 B.n164 585
R664 B.n163 B.n162 585
R665 B.n161 B.n160 585
R666 B.n159 B.n158 585
R667 B.n157 B.n156 585
R668 B.n155 B.n154 585
R669 B.n153 B.n152 585
R670 B.n151 B.n150 585
R671 B.n149 B.n148 585
R672 B.n147 B.n146 585
R673 B.n145 B.n144 585
R674 B.n143 B.n142 585
R675 B.n141 B.n140 585
R676 B.n139 B.n138 585
R677 B.n812 B.n91 585
R678 B.n816 B.n91 585
R679 B.n811 B.n90 585
R680 B.n817 B.n90 585
R681 B.n810 B.n809 585
R682 B.n809 B.n86 585
R683 B.n808 B.n85 585
R684 B.n823 B.n85 585
R685 B.n807 B.n84 585
R686 B.n824 B.n84 585
R687 B.n806 B.n83 585
R688 B.n825 B.n83 585
R689 B.n805 B.n804 585
R690 B.n804 B.n79 585
R691 B.n803 B.n78 585
R692 B.n831 B.n78 585
R693 B.n802 B.n77 585
R694 B.n832 B.n77 585
R695 B.n801 B.n76 585
R696 B.n833 B.n76 585
R697 B.n800 B.n799 585
R698 B.n799 B.n72 585
R699 B.n798 B.n71 585
R700 B.n839 B.n71 585
R701 B.n797 B.n70 585
R702 B.n840 B.n70 585
R703 B.n796 B.n69 585
R704 B.n841 B.n69 585
R705 B.n795 B.n794 585
R706 B.n794 B.n65 585
R707 B.n793 B.n64 585
R708 B.n847 B.n64 585
R709 B.n792 B.n63 585
R710 B.n848 B.n63 585
R711 B.n791 B.n62 585
R712 B.n849 B.n62 585
R713 B.n790 B.n789 585
R714 B.n789 B.n58 585
R715 B.n788 B.n57 585
R716 B.n855 B.n57 585
R717 B.n787 B.n56 585
R718 B.n856 B.n56 585
R719 B.n786 B.n55 585
R720 B.n857 B.n55 585
R721 B.n785 B.n784 585
R722 B.n784 B.n51 585
R723 B.n783 B.n50 585
R724 B.n863 B.n50 585
R725 B.n782 B.n49 585
R726 B.n864 B.n49 585
R727 B.n781 B.n48 585
R728 B.n865 B.n48 585
R729 B.n780 B.n779 585
R730 B.n779 B.n44 585
R731 B.n778 B.n43 585
R732 B.n871 B.n43 585
R733 B.n777 B.n42 585
R734 B.n872 B.n42 585
R735 B.n776 B.n41 585
R736 B.n873 B.n41 585
R737 B.n775 B.n774 585
R738 B.n774 B.n37 585
R739 B.n773 B.n36 585
R740 B.n879 B.n36 585
R741 B.n772 B.n35 585
R742 B.n880 B.n35 585
R743 B.n771 B.n34 585
R744 B.n881 B.n34 585
R745 B.n770 B.n769 585
R746 B.n769 B.n30 585
R747 B.n768 B.n29 585
R748 B.n887 B.n29 585
R749 B.n767 B.n28 585
R750 B.n888 B.n28 585
R751 B.n766 B.n27 585
R752 B.n889 B.n27 585
R753 B.n765 B.n764 585
R754 B.n764 B.n23 585
R755 B.n763 B.n22 585
R756 B.n895 B.n22 585
R757 B.n762 B.n21 585
R758 B.n896 B.n21 585
R759 B.n761 B.n20 585
R760 B.n897 B.n20 585
R761 B.n760 B.n759 585
R762 B.n759 B.n19 585
R763 B.n758 B.n15 585
R764 B.n903 B.n15 585
R765 B.n757 B.n14 585
R766 B.n904 B.n14 585
R767 B.n756 B.n13 585
R768 B.n905 B.n13 585
R769 B.n755 B.n754 585
R770 B.n754 B.n12 585
R771 B.n753 B.n752 585
R772 B.n753 B.n8 585
R773 B.n751 B.n7 585
R774 B.n912 B.n7 585
R775 B.n750 B.n6 585
R776 B.n913 B.n6 585
R777 B.n749 B.n5 585
R778 B.n914 B.n5 585
R779 B.n748 B.n747 585
R780 B.n747 B.n4 585
R781 B.n746 B.n298 585
R782 B.n746 B.n745 585
R783 B.n736 B.n299 585
R784 B.n300 B.n299 585
R785 B.n738 B.n737 585
R786 B.n739 B.n738 585
R787 B.n735 B.n305 585
R788 B.n305 B.n304 585
R789 B.n734 B.n733 585
R790 B.n733 B.n732 585
R791 B.n307 B.n306 585
R792 B.n725 B.n307 585
R793 B.n724 B.n723 585
R794 B.n726 B.n724 585
R795 B.n722 B.n312 585
R796 B.n312 B.n311 585
R797 B.n721 B.n720 585
R798 B.n720 B.n719 585
R799 B.n314 B.n313 585
R800 B.n315 B.n314 585
R801 B.n712 B.n711 585
R802 B.n713 B.n712 585
R803 B.n710 B.n320 585
R804 B.n320 B.n319 585
R805 B.n709 B.n708 585
R806 B.n708 B.n707 585
R807 B.n322 B.n321 585
R808 B.n323 B.n322 585
R809 B.n700 B.n699 585
R810 B.n701 B.n700 585
R811 B.n698 B.n327 585
R812 B.n331 B.n327 585
R813 B.n697 B.n696 585
R814 B.n696 B.n695 585
R815 B.n329 B.n328 585
R816 B.n330 B.n329 585
R817 B.n688 B.n687 585
R818 B.n689 B.n688 585
R819 B.n686 B.n336 585
R820 B.n336 B.n335 585
R821 B.n685 B.n684 585
R822 B.n684 B.n683 585
R823 B.n338 B.n337 585
R824 B.n339 B.n338 585
R825 B.n676 B.n675 585
R826 B.n677 B.n676 585
R827 B.n674 B.n344 585
R828 B.n344 B.n343 585
R829 B.n673 B.n672 585
R830 B.n672 B.n671 585
R831 B.n346 B.n345 585
R832 B.n347 B.n346 585
R833 B.n664 B.n663 585
R834 B.n665 B.n664 585
R835 B.n662 B.n352 585
R836 B.n352 B.n351 585
R837 B.n661 B.n660 585
R838 B.n660 B.n659 585
R839 B.n354 B.n353 585
R840 B.n355 B.n354 585
R841 B.n652 B.n651 585
R842 B.n653 B.n652 585
R843 B.n650 B.n360 585
R844 B.n360 B.n359 585
R845 B.n649 B.n648 585
R846 B.n648 B.n647 585
R847 B.n362 B.n361 585
R848 B.n363 B.n362 585
R849 B.n640 B.n639 585
R850 B.n641 B.n640 585
R851 B.n638 B.n368 585
R852 B.n368 B.n367 585
R853 B.n637 B.n636 585
R854 B.n636 B.n635 585
R855 B.n370 B.n369 585
R856 B.n371 B.n370 585
R857 B.n628 B.n627 585
R858 B.n629 B.n628 585
R859 B.n626 B.n375 585
R860 B.n379 B.n375 585
R861 B.n625 B.n624 585
R862 B.n624 B.n623 585
R863 B.n377 B.n376 585
R864 B.n378 B.n377 585
R865 B.n616 B.n615 585
R866 B.n617 B.n616 585
R867 B.n614 B.n384 585
R868 B.n384 B.n383 585
R869 B.n613 B.n612 585
R870 B.n612 B.n611 585
R871 B.n386 B.n385 585
R872 B.n387 B.n386 585
R873 B.n604 B.n603 585
R874 B.n605 B.n604 585
R875 B.n602 B.n392 585
R876 B.n392 B.n391 585
R877 B.n596 B.n595 585
R878 B.n594 B.n434 585
R879 B.n593 B.n433 585
R880 B.n598 B.n433 585
R881 B.n592 B.n591 585
R882 B.n590 B.n589 585
R883 B.n588 B.n587 585
R884 B.n586 B.n585 585
R885 B.n584 B.n583 585
R886 B.n582 B.n581 585
R887 B.n580 B.n579 585
R888 B.n578 B.n577 585
R889 B.n576 B.n575 585
R890 B.n574 B.n573 585
R891 B.n572 B.n571 585
R892 B.n570 B.n569 585
R893 B.n568 B.n567 585
R894 B.n566 B.n565 585
R895 B.n564 B.n563 585
R896 B.n562 B.n561 585
R897 B.n560 B.n559 585
R898 B.n558 B.n557 585
R899 B.n556 B.n555 585
R900 B.n554 B.n553 585
R901 B.n552 B.n551 585
R902 B.n550 B.n549 585
R903 B.n548 B.n547 585
R904 B.n546 B.n545 585
R905 B.n544 B.n543 585
R906 B.n542 B.n541 585
R907 B.n540 B.n539 585
R908 B.n538 B.n537 585
R909 B.n536 B.n535 585
R910 B.n534 B.n533 585
R911 B.n532 B.n531 585
R912 B.n530 B.n529 585
R913 B.n528 B.n527 585
R914 B.n525 B.n524 585
R915 B.n523 B.n522 585
R916 B.n521 B.n520 585
R917 B.n519 B.n518 585
R918 B.n517 B.n516 585
R919 B.n515 B.n514 585
R920 B.n513 B.n512 585
R921 B.n511 B.n510 585
R922 B.n509 B.n508 585
R923 B.n507 B.n506 585
R924 B.n505 B.n504 585
R925 B.n503 B.n502 585
R926 B.n501 B.n500 585
R927 B.n499 B.n498 585
R928 B.n497 B.n496 585
R929 B.n495 B.n494 585
R930 B.n493 B.n492 585
R931 B.n491 B.n490 585
R932 B.n489 B.n488 585
R933 B.n487 B.n486 585
R934 B.n485 B.n484 585
R935 B.n483 B.n482 585
R936 B.n481 B.n480 585
R937 B.n479 B.n478 585
R938 B.n477 B.n476 585
R939 B.n475 B.n474 585
R940 B.n473 B.n472 585
R941 B.n471 B.n470 585
R942 B.n469 B.n468 585
R943 B.n467 B.n466 585
R944 B.n465 B.n464 585
R945 B.n463 B.n462 585
R946 B.n461 B.n460 585
R947 B.n459 B.n458 585
R948 B.n457 B.n456 585
R949 B.n455 B.n454 585
R950 B.n453 B.n452 585
R951 B.n451 B.n450 585
R952 B.n449 B.n448 585
R953 B.n447 B.n446 585
R954 B.n445 B.n444 585
R955 B.n443 B.n442 585
R956 B.n441 B.n440 585
R957 B.n394 B.n393 585
R958 B.n601 B.n600 585
R959 B.n390 B.n389 585
R960 B.n391 B.n390 585
R961 B.n607 B.n606 585
R962 B.n606 B.n605 585
R963 B.n608 B.n388 585
R964 B.n388 B.n387 585
R965 B.n610 B.n609 585
R966 B.n611 B.n610 585
R967 B.n382 B.n381 585
R968 B.n383 B.n382 585
R969 B.n619 B.n618 585
R970 B.n618 B.n617 585
R971 B.n620 B.n380 585
R972 B.n380 B.n378 585
R973 B.n622 B.n621 585
R974 B.n623 B.n622 585
R975 B.n374 B.n373 585
R976 B.n379 B.n374 585
R977 B.n631 B.n630 585
R978 B.n630 B.n629 585
R979 B.n632 B.n372 585
R980 B.n372 B.n371 585
R981 B.n634 B.n633 585
R982 B.n635 B.n634 585
R983 B.n366 B.n365 585
R984 B.n367 B.n366 585
R985 B.n643 B.n642 585
R986 B.n642 B.n641 585
R987 B.n644 B.n364 585
R988 B.n364 B.n363 585
R989 B.n646 B.n645 585
R990 B.n647 B.n646 585
R991 B.n358 B.n357 585
R992 B.n359 B.n358 585
R993 B.n655 B.n654 585
R994 B.n654 B.n653 585
R995 B.n656 B.n356 585
R996 B.n356 B.n355 585
R997 B.n658 B.n657 585
R998 B.n659 B.n658 585
R999 B.n350 B.n349 585
R1000 B.n351 B.n350 585
R1001 B.n667 B.n666 585
R1002 B.n666 B.n665 585
R1003 B.n668 B.n348 585
R1004 B.n348 B.n347 585
R1005 B.n670 B.n669 585
R1006 B.n671 B.n670 585
R1007 B.n342 B.n341 585
R1008 B.n343 B.n342 585
R1009 B.n679 B.n678 585
R1010 B.n678 B.n677 585
R1011 B.n680 B.n340 585
R1012 B.n340 B.n339 585
R1013 B.n682 B.n681 585
R1014 B.n683 B.n682 585