** sch_path: /home/chandru/Tools/OpenFASOC/generators/lc-dco/xschem_rundir/swcap_3M2C_scaled.sch
.subckt swcap_3M2C_scaled outn outp sw<7>,sw<6>,sw<5>,sw<4>,sw<3>,sw<2>,sw<1>,sw<0> GND
*.PININFO outn:O outp:O sw[7:0]:I GND:B
**** spice_prefix X
C2<7>,C2<6>,C2<5>,C2<4>,C2<3>,C2<2>,C2<1>,C2<0> ?1 net2 ?1 outn  sky130_fd_pr__cap_mim_m3_1 W=1 L=1 MF=1 m=1
**** end_element
**** spice_prefix X
M6 ?1 net1 ?1 sw<0> ?1 net2  GND sky130_fd_pr__nfet_01v8_lvt L=0.15 W=4.8
+ nf=2 ad='int((nf+1)/2) * W/nf * 0.29' as='int((nf+2)/2) * W/nf * 0.29' pd='2*int((nf+1)/2) * (W/nf + 0.29)' ps='2*int((nf+2)/2) * (W/nf + 0.29)'
+ nrd='0.29 / W' nrs='0.29 / W' sa=0 sb=0 sd=0
+ mult=1 m=1
**** end_element
**** spice_prefix X
M1 ?1 GND ?1 sw<0> ?1 net1  GND sky130_fd_pr__nfet_01v8_lvt L=0.15 W=1
+ nf=2 ad='int((nf+1)/2) * W/nf * 0.29' as='int((nf+2)/2) * W/nf * 0.29' pd='2*int((nf+1)/2) * (W/nf + 0.29)' ps='2*int((nf+2)/2) * (W/nf + 0.29)'
+ nrd='0.29 / W' nrs='0.29 / W' sa=0 sb=0 sd=0
+ mult=1 m=1
**** end_element
**** spice_prefix X
M2 ?1 GND ?1 sw<0> ?1 net2  GND sky130_fd_pr__nfet_01v8_lvt L=0.15 W=1
+ nf=2 ad='int((nf+1)/2) * W/nf * 0.29' as='int((nf+2)/2) * W/nf * 0.29' pd='2*int((nf+1)/2) * (W/nf + 0.29)' ps='2*int((nf+2)/2) * (W/nf + 0.29)'
+ nrd='0.29 / W' nrs='0.29 / W' sa=0 sb=0 sd=0
+ mult=1 m=1
**** end_element
**** spice_prefix X
C1<7>,C1<6>,C1<5>,C1<4>,C1<3>,C1<2>,C1<1>,C1<0> ?1 outp ?1 net1  sky130_fd_pr__cap_mim_m3_1 W=1 L=1 MF=1 m=1
**** end_element
**** spice_prefix X
C4<15>,C4<14>,C4<13>,C4<12>,C4<11>,C4<10>,C4<9>,C4<8>,C4<7>,C4<6>,C4<5>,C4<4>,C4<3>,C4<2>,C4<1>,C4<0> ?1 net4 ?1 outn  sky130_fd_pr__cap_mim_m3_1 W=1 L=1 MF=1 m=1
**** end_element
**** spice_prefix X
M3 ?1 net3 ?1 sw<1> ?1 net4  GND sky130_fd_pr__nfet_01v8_lvt L=0.15 W=4.8
+ nf=1 ad='int((nf+1)/2) * W/nf * 0.29' as='int((nf+2)/2) * W/nf * 0.29' pd='2*int((nf+1)/2) * (W/nf + 0.29)' ps='2*int((nf+2)/2) * (W/nf + 0.29)'
+ nrd='0.29 / W' nrs='0.29 / W' sa=0 sb=0 sd=0
+ mult=1 m=1
**** end_element
**** spice_prefix X
M4 ?1 GND ?1 sw<1> ?1 net3  GND sky130_fd_pr__nfet_01v8_lvt L=0.15 W=1
+ nf=2 ad='int((nf+1)/2) * W/nf * 0.29' as='int((nf+2)/2) * W/nf * 0.29' pd='2*int((nf+1)/2) * (W/nf + 0.29)' ps='2*int((nf+2)/2) * (W/nf + 0.29)'
+ nrd='0.29 / W' nrs='0.29 / W' sa=0 sb=0 sd=0
+ mult=1 m=1
**** end_element
**** spice_prefix X
M5 ?1 GND ?1 sw<1> ?1 net4  GND sky130_fd_pr__nfet_01v8_lvt L=0.15 W=1
+ nf=2 ad='int((nf+1)/2) * W/nf * 0.29' as='int((nf+2)/2) * W/nf * 0.29' pd='2*int((nf+1)/2) * (W/nf + 0.29)' ps='2*int((nf+2)/2) * (W/nf + 0.29)'
+ nrd='0.29 / W' nrs='0.29 / W' sa=0 sb=0 sd=0
+ mult=1 m=1
**** end_element
**** spice_prefix X
C3<15>,C3<14>,C3<13>,C3<12>,C3<11>,C3<10>,C3<9>,C3<8>,C3<7>,C3<6>,C3<5>,C3<4>,C3<3>,C3<2>,C3<1>,C3<0> ?1 outp ?1 net3  sky130_fd_pr__cap_mim_m3_1 W=1 L=1 MF=1 m=1
**** end_element
**** spice_prefix X
C6<31>,C6<30>,C6<29>,C6<28>,C6<27>,C6<26>,C6<25>,C6<24>,C6<23>,C6<22>,C6<21>,C6<20>,C6<19>,C6<18>,C6<17>,C6<16>,C6<15>,C6<14>,C6<13>,C6<12>,C6<11>,C6<10>,C6<9>,C6<8>,C6<7>,C6<6>,C6<5>,C6<4>,C6<3>,C6<2>,C6<1>,C6<0> ?1 net6 ?1 outn  sky130_fd_pr__cap_mim_m3_1 W=1 L=1 MF=1 m=1
**** end_element
**** spice_prefix X
M7 ?1 net5 ?1 sw<2> ?1 net6  GND sky130_fd_pr__nfet_01v8_lvt L=0.15 W=4.8
+ nf=6 ad='int((nf+1)/2) * W/nf * 0.29' as='int((nf+2)/2) * W/nf * 0.29' pd='2*int((nf+1)/2) * (W/nf + 0.29)' ps='2*int((nf+2)/2) * (W/nf + 0.29)'
+ nrd='0.29 / W' nrs='0.29 / W' sa=0 sb=0 sd=0
+ mult=1 m=1
**** end_element
**** spice_prefix X
M8 ?1 GND ?1 sw<2> ?1 net5  GND sky130_fd_pr__nfet_01v8_lvt L=0.15 W=1
+ nf=2 ad='int((nf+1)/2) * W/nf * 0.29' as='int((nf+2)/2) * W/nf * 0.29' pd='2*int((nf+1)/2) * (W/nf + 0.29)' ps='2*int((nf+2)/2) * (W/nf + 0.29)'
+ nrd='0.29 / W' nrs='0.29 / W' sa=0 sb=0 sd=0
+ mult=1 m=1
**** end_element
**** spice_prefix X
M9 ?1 GND ?1 sw<2> ?1 net6  GND sky130_fd_pr__nfet_01v8_lvt L=0.15 W=1
+ nf=2 ad='int((nf+1)/2) * W/nf * 0.29' as='int((nf+2)/2) * W/nf * 0.29' pd='2*int((nf+1)/2) * (W/nf + 0.29)' ps='2*int((nf+2)/2) * (W/nf + 0.29)'
+ nrd='0.29 / W' nrs='0.29 / W' sa=0 sb=0 sd=0
+ mult=1 m=1
**** end_element
**** spice_prefix X
C5<31>,C5<30>,C5<29>,C5<28>,C5<27>,C5<26>,C5<25>,C5<24>,C5<23>,C5<22>,C5<21>,C5<20>,C5<19>,C5<18>,C5<17>,C5<16>,C5<15>,C5<14>,C5<13>,C5<12>,C5<11>,C5<10>,C5<9>,C5<8>,C5<7>,C5<6>,C5<5>,C5<4>,C5<3>,C5<2>,C5<1>,C5<0> ?1 outp ?1 net5  sky130_fd_pr__cap_mim_m3_1 W=1 L=1 MF=1 m=1
**** end_element
**** spice_prefix X
C8<63>,C8<62>,C8<61>,C8<60>,C8<59>,C8<58>,C8<57>,C8<56>,C8<55>,C8<54>,C8<53>,C8<52>,C8<51>,C8<50>,C8<49>,C8<48>,C8<47>,C8<46>,C8<45>,C8<44>,C8<43>,C8<42>,C8<41>,C8<40>,C8<39>,C8<38>,C8<37>,C8<36>,C8<35>,C8<34>,C8<33>,C8<32>,C8<31>,C8<30>,C8<29>,C8<28>,C8<27>,C8<26>,C8<25>,C8<24>,C8<23>,C8<22>,C8<21>,C8<20>,C8<19>,C8<18>,C8<17>,C8<16>,C8<15>,C8<14>,C8<13>,C8<12>,C8<11>,C8<10>,C8<9>,C8<8>,C8<7>,C8<6>,C8<5>,C8<4>,C8<3>,C8<2>,C8<1>,C8<0> ?1 net8 ?1 outn  sky130_fd_pr__cap_mim_m3_1 W=1 L=1 MF=1 m=1
**** end_element
**** spice_prefix X
M10 ?1 net7 ?1 sw<3> ?1 net8  GND sky130_fd_pr__nfet_01v8_lvt L=0.15 W=4.8
+ nf=6 ad='int((nf+1)/2) * W/nf * 0.29' as='int((nf+2)/2) * W/nf * 0.29' pd='2*int((nf+1)/2) * (W/nf + 0.29)' ps='2*int((nf+2)/2) * (W/nf + 0.29)'
+ nrd='0.29 / W' nrs='0.29 / W' sa=0 sb=0 sd=0
+ mult=1 m=1
**** end_element
**** spice_prefix X
M11 ?1 GND ?1 sw<3> ?1 net7  GND sky130_fd_pr__nfet_01v8_lvt L=0.15 W=1
+ nf=2 ad='int((nf+1)/2) * W/nf * 0.29' as='int((nf+2)/2) * W/nf * 0.29' pd='2*int((nf+1)/2) * (W/nf + 0.29)' ps='2*int((nf+2)/2) * (W/nf + 0.29)'
+ nrd='0.29 / W' nrs='0.29 / W' sa=0 sb=0 sd=0
+ mult=1 m=1
**** end_element
**** spice_prefix X
M12 ?1 GND ?1 sw<3> ?1 net8  GND sky130_fd_pr__nfet_01v8_lvt L=0.15 W=1
+ nf=2 ad='int((nf+1)/2) * W/nf * 0.29' as='int((nf+2)/2) * W/nf * 0.29' pd='2*int((nf+1)/2) * (W/nf + 0.29)' ps='2*int((nf+2)/2) * (W/nf + 0.29)'
+ nrd='0.29 / W' nrs='0.29 / W' sa=0 sb=0 sd=0
+ mult=1 m=1
**** end_element
**** spice_prefix X
C7<63>,C7<62>,C7<61>,C7<60>,C7<59>,C7<58>,C7<57>,C7<56>,C7<55>,C7<54>,C7<53>,C7<52>,C7<51>,C7<50>,C7<49>,C7<48>,C7<47>,C7<46>,C7<45>,C7<44>,C7<43>,C7<42>,C7<41>,C7<40>,C7<39>,C7<38>,C7<37>,C7<36>,C7<35>,C7<34>,C7<33>,C7<32>,C7<31>,C7<30>,C7<29>,C7<28>,C7<27>,C7<26>,C7<25>,C7<24>,C7<23>,C7<22>,C7<21>,C7<20>,C7<19>,C7<18>,C7<17>,C7<16>,C7<15>,C7<14>,C7<13>,C7<12>,C7<11>,C7<10>,C7<9>,C7<8>,C7<7>,C7<6>,C7<5>,C7<4>,C7<3>,C7<2>,C7<1>,C7<0> ?1 outp ?1 net7  sky130_fd_pr__cap_mim_m3_1 W=1 L=1 MF=1 m=1
**** end_element
**** spice_prefix X
C10<127>,C10<126>,C10<125>,C10<124>,C10<123>,C10<122>,C10<121>,C10<120>,C10<119>,C10<118>,C10<117>,C10<116>,C10<115>,C10<114>,C10<113>,C10<112>,C10<111>,C10<110>,C10<109>,C10<108>,C10<107>,C10<106>,C10<105>,C10<104>,C10<103>,C10<102>,C10<101>,C10<100>,C10<99>,C10<98>,C10<97>,C10<96>,C10<95>,C10<94>,C10<93>,C10<92>,C10<91>,C10<90>,C10<89>,C10<88>,C10<87>,C10<86>,C10<85>,C10<84>,C10<83>,C10<82>,C10<81>,C10<80>,C10<79>,C10<78>,C10<77>,C10<76>,C10<75>,C10<74>,C10<73>,C10<72>,C10<71>,C10<70>,C10<69>,C10<68>,C10<67>,C10<66>,C10<65>,C10<64>,C10<63>,C10<62>,C10<61>,C10<60>,C10<59>,C10<58>,C10<57>,C10<56>,C10<55>,C10<54>,C10<53>,C10<52>,C10<51>,C10<50>,C10<49>,C10<48>,C10<47>,C10<46>,C10<45>,C10<44>,C10<43>,C10<42>,C10<41>,C10<40>,C10<39>,C10<38>,C10<37>,C10<36>,C10<35>,C10<34>,C10<33>,C10<32>,C10<31>,C10<30>,C10<29>,C10<28>,C10<27>,C10<26>,C10<25>,C10<24>,C10<23>,C10<22>,C10<21>,C10<20>,C10<19>,C10<18>,C10<17>,C10<16>,C10<15>,C10<14>,C10<13>,C10<12>,C10<11>,C10<10>,C10<9>,C10<8>,C10<7>,C10<6>,C10<5>,C10<4>,C10<3>,C10<2>,C10<1>,C10<0> ?1 net10<1>,net10<0> ?1 outn  sky130_fd_pr__cap_mim_m3_1 W=1 L=1 MF=1 m=1
**** end_element
**** spice_prefix X
M13<1>,M13<0> ?1 net9<1>,net9<0> ?1 sw<4> ?1 net10<1>,net10<0>  GND sky130_fd_pr__nfet_01v8_lvt L=0.15 W=4.8
+ nf=8 ad='int((nf+1)/2) * W/nf * 0.29' as='int((nf+2)/2) * W/nf * 0.29' pd='2*int((nf+1)/2) * (W/nf + 0.29)' ps='2*int((nf+2)/2) * (W/nf + 0.29)'
+ nrd='0.29 / W' nrs='0.29 / W' sa=0 sb=0 sd=0
+ mult=1 m=1
**** end_element
**** spice_prefix X
M14<2>,M14<1>,M14<0> ?1 GND ?1 sw<4> ?1 net9<1>,net9<0>  GND sky130_fd_pr__nfet_01v8_lvt L=0.15 W=1
+ nf=2 ad='int((nf+1)/2) * W/nf * 0.29' as='int((nf+2)/2) * W/nf * 0.29' pd='2*int((nf+1)/2) * (W/nf + 0.29)' ps='2*int((nf+2)/2) * (W/nf + 0.29)'
+ nrd='0.29 / W' nrs='0.29 / W' sa=0 sb=0 sd=0
+ mult=1 m=1
**** end_element
**** spice_prefix X
M15<2>,M15<1>,M15<0> ?1 GND ?1 sw<4> ?1 net10<1>,net10<0>  GND sky130_fd_pr__nfet_01v8_lvt L=0.15 W=1
+ nf=2 ad='int((nf+1)/2) * W/nf * 0.29' as='int((nf+2)/2) * W/nf * 0.29' pd='2*int((nf+1)/2) * (W/nf + 0.29)' ps='2*int((nf+2)/2) * (W/nf + 0.29)'
+ nrd='0.29 / W' nrs='0.29 / W' sa=0 sb=0 sd=0
+ mult=1 m=1
**** end_element
**** spice_prefix X
C9<127>,C9<126>,C9<125>,C9<124>,C9<123>,C9<122>,C9<121>,C9<120>,C9<119>,C9<118>,C9<117>,C9<116>,C9<115>,C9<114>,C9<113>,C9<112>,C9<111>,C9<110>,C9<109>,C9<108>,C9<107>,C9<106>,C9<105>,C9<104>,C9<103>,C9<102>,C9<101>,C9<100>,C9<99>,C9<98>,C9<97>,C9<96>,C9<95>,C9<94>,C9<93>,C9<92>,C9<91>,C9<90>,C9<89>,C9<88>,C9<87>,C9<86>,C9<85>,C9<84>,C9<83>,C9<82>,C9<81>,C9<80>,C9<79>,C9<78>,C9<77>,C9<76>,C9<75>,C9<74>,C9<73>,C9<72>,C9<71>,C9<70>,C9<69>,C9<68>,C9<67>,C9<66>,C9<65>,C9<64>,C9<63>,C9<62>,C9<61>,C9<60>,C9<59>,C9<58>,C9<57>,C9<56>,C9<55>,C9<54>,C9<53>,C9<52>,C9<51>,C9<50>,C9<49>,C9<48>,C9<47>,C9<46>,C9<45>,C9<44>,C9<43>,C9<42>,C9<41>,C9<40>,C9<39>,C9<38>,C9<37>,C9<36>,C9<35>,C9<34>,C9<33>,C9<32>,C9<31>,C9<30>,C9<29>,C9<28>,C9<27>,C9<26>,C9<25>,C9<24>,C9<23>,C9<22>,C9<21>,C9<20>,C9<19>,C9<18>,C9<17>,C9<16>,C9<15>,C9<14>,C9<13>,C9<12>,C9<11>,C9<10>,C9<9>,C9<8>,C9<7>,C9<6>,C9<5>,C9<4>,C9<3>,C9<2>,C9<1>,C9<0> ?1 outp ?1 net9<1>,net9<0>  sky130_fd_pr__cap_mim_m3_1 W=1 L=1 MF=1 m=1
**** end_element
**** spice_prefix X
C12<255>,C12<254>,C12<253>,C12<252>,C12<251>,C12<250>,C12<249>,C12<248>,C12<247>,C12<246>,C12<245>,C12<244>,C12<243>,C12<242>,C12<241>,C12<240>,C12<239>,C12<238>,C12<237>,C12<236>,C12<235>,C12<234>,C12<233>,C12<232>,C12<231>,C12<230>,C12<229>,C12<228>,C12<227>,C12<226>,C12<225>,C12<224>,C12<223>,C12<222>,C12<221>,C12<220>,C12<219>,C12<218>,C12<217>,C12<216>,C12<215>,C12<214>,C12<213>,C12<212>,C12<211>,C12<210>,C12<209>,C12<208>,C12<207>,C12<206>,C12<205>,C12<204>,C12<203>,C12<202>,C12<201>,C12<200>,C12<199>,C12<198>,C12<197>,C12<196>,C12<195>,C12<194>,C12<193>,C12<192>,C12<191>,C12<190>,C12<189>,C12<188>,C12<187>,C12<186>,C12<185>,C12<184>,C12<183>,C12<182>,C12<181>,C12<180>,C12<179>,C12<178>,C12<177>,C12<176>,C12<175>,C12<174>,C12<173>,C12<172>,C12<171>,C12<170>,C12<169>,C12<168>,C12<167>,C12<166>,C12<165>,C12<164>,C12<163>,C12<162>,C12<161>,C12<160>,C12<159>,C12<158>,C12<157>,C12<156>,C12<155>,C12<154>,C12<153>,C12<152>,C12<151>,C12<150>,C12<149>,C12<148>,C12<147>,C12<146>,C12<145>,C12<144>,C12<143>,C12<142>,C12<141>,C12<140>,C12<139>,C12<138>,C12<137>,C12<136>,C12<135>,C12<134>,C12<133>,C12<132>,C12<131>,C12<130>,C12<129>,C12<128>,C12<127>,C12<126>,C12<125>,C12<124>,C12<123>,C12<122>,C12<121>,C12<120>,C12<119>,C12<118>,C12<117>,C12<116>,C12<115>,C12<114>,C12<113>,C12<112>,C12<111>,C12<110>,C12<109>,C12<108>,C12<107>,C12<106>,C12<105>,C12<104>,C12<103>,C12<102>,C12<101>,C12<100>,C12<99>,C12<98>,C12<97>,C12<96>,C12<95>,C12<94>,C12<93>,C12<92>,C12<91>,C12<90>,C12<89>,C12<88>,C12<87>,C12<86>,C12<85>,C12<84>,C12<83>,C12<82>,C12<81>,C12<80>,C12<79>,C12<78>,C12<77>,C12<76>,C12<75>,C12<74>,C12<73>,C12<72>,C12<71>,C12<70>,C12<69>,C12<68>,C12<67>,C12<66>,C12<65>,C12<64>,C12<63>,C12<62>,C12<61>,C12<60>,C12<59>,C12<58>,C12<57>,C12<56>,C12<55>,C12<54>,C12<53>,C12<52>,C12<51>,C12<50>,C12<49>,C12<48>,C12<47>,C12<46>,C12<45>,C12<44>,C12<43>,C12<42>,C12<41>,C12<40>,C12<39>,C12<38>,C12<37>,C12<36>,C12<35>,C12<34>,C12<33>,C12<32>,C12<31>,C12<30>,C12<29>,C12<28>,C12<27>,C12<26>,C12<25>,C12<24>,C12<23>,C12<22>,C12<21>,C12<20>,C12<19>,C12<18>,C12<17>,C12<16>,C12<15>,C12<14>,C12<13>,C12<12>,C12<11>,C12<10>,C12<9>,C12<8>,C12<7>,C12<6>,C12<5>,C12<4>,C12<3>,C12<2>,C12<1>,C12<0> ?1 net12<2>,net12<1>,net12<0> ?1 outn  sky130_fd_pr__cap_mim_m3_1 W=1 L=1 MF=1 m=1
**** end_element
**** spice_prefix X
M16<2>,M16<1>,M16<0> ?1 net11<2>,net11<1>,net11<0> ?1 sw<5> ?1 net12<2>,net12<1>,net12<0>  GND sky130_fd_pr__nfet_01v8_lvt L=0.15 W=4.8
+ nf=11 ad='int((nf+1)/2) * W/nf * 0.29' as='int((nf+2)/2) * W/nf * 0.29' pd='2*int((nf+1)/2) * (W/nf + 0.29)' ps='2*int((nf+2)/2) * (W/nf + 0.29)'
+ nrd='0.29 / W' nrs='0.29 / W' sa=0 sb=0 sd=0
+ mult=1 m=1
**** end_element
**** spice_prefix X
M17<2>,M17<1>,M17<0> ?1 GND ?1 sw<5> ?1 net11<2>,net11<1>,net11<0>  GND sky130_fd_pr__nfet_01v8_lvt L=0.15 W=1
+ nf=2 ad='int((nf+1)/2) * W/nf * 0.29' as='int((nf+2)/2) * W/nf * 0.29' pd='2*int((nf+1)/2) * (W/nf + 0.29)' ps='2*int((nf+2)/2) * (W/nf + 0.29)'
+ nrd='0.29 / W' nrs='0.29 / W' sa=0 sb=0 sd=0
+ mult=1 m=1
**** end_element
**** spice_prefix X
M18<2>,M18<1>,M18<0> ?1 GND ?1 sw<5> ?1 net12<2>,net12<1>,net12<0>  GND sky130_fd_pr__nfet_01v8_lvt L=0.15 W=1
+ nf=2 ad='int((nf+1)/2) * W/nf * 0.29' as='int((nf+2)/2) * W/nf * 0.29' pd='2*int((nf+1)/2) * (W/nf + 0.29)' ps='2*int((nf+2)/2) * (W/nf + 0.29)'
+ nrd='0.29 / W' nrs='0.29 / W' sa=0 sb=0 sd=0
+ mult=1 m=1
**** end_element
**** spice_prefix X
C11<255>,C11<254>,C11<253>,C11<252>,C11<251>,C11<250>,C11<249>,C11<248>,C11<247>,C11<246>,C11<245>,C11<244>,C11<243>,C11<242>,C11<241>,C11<240>,C11<239>,C11<238>,C11<237>,C11<236>,C11<235>,C11<234>,C11<233>,C11<232>,C11<231>,C11<230>,C11<229>,C11<228>,C11<227>,C11<226>,C11<225>,C11<224>,C11<223>,C11<222>,C11<221>,C11<220>,C11<219>,C11<218>,C11<217>,C11<216>,C11<215>,C11<214>,C11<213>,C11<212>,C11<211>,C11<210>,C11<209>,C11<208>,C11<207>,C11<206>,C11<205>,C11<204>,C11<203>,C11<202>,C11<201>,C11<200>,C11<199>,C11<198>,C11<197>,C11<196>,C11<195>,C11<194>,C11<193>,C11<192>,C11<191>,C11<190>,C11<189>,C11<188>,C11<187>,C11<186>,C11<185>,C11<184>,C11<183>,C11<182>,C11<181>,C11<180>,C11<179>,C11<178>,C11<177>,C11<176>,C11<175>,C11<174>,C11<173>,C11<172>,C11<171>,C11<170>,C11<169>,C11<168>,C11<167>,C11<166>,C11<165>,C11<164>,C11<163>,C11<162>,C11<161>,C11<160>,C11<159>,C11<158>,C11<157>,C11<156>,C11<155>,C11<154>,C11<153>,C11<152>,C11<151>,C11<150>,C11<149>,C11<148>,C11<147>,C11<146>,C11<145>,C11<144>,C11<143>,C11<142>,C11<141>,C11<140>,C11<139>,C11<138>,C11<137>,C11<136>,C11<135>,C11<134>,C11<133>,C11<132>,C11<131>,C11<130>,C11<129>,C11<128>,C11<127>,C11<126>,C11<125>,C11<124>,C11<123>,C11<122>,C11<121>,C11<120>,C11<119>,C11<118>,C11<117>,C11<116>,C11<115>,C11<114>,C11<113>,C11<112>,C11<111>,C11<110>,C11<109>,C11<108>,C11<107>,C11<106>,C11<105>,C11<104>,C11<103>,C11<102>,C11<101>,C11<100>,C11<99>,C11<98>,C11<97>,C11<96>,C11<95>,C11<94>,C11<93>,C11<92>,C11<91>,C11<90>,C11<89>,C11<88>,C11<87>,C11<86>,C11<85>,C11<84>,C11<83>,C11<82>,C11<81>,C11<80>,C11<79>,C11<78>,C11<77>,C11<76>,C11<75>,C11<74>,C11<73>,C11<72>,C11<71>,C11<70>,C11<69>,C11<68>,C11<67>,C11<66>,C11<65>,C11<64>,C11<63>,C11<62>,C11<61>,C11<60>,C11<59>,C11<58>,C11<57>,C11<56>,C11<55>,C11<54>,C11<53>,C11<52>,C11<51>,C11<50>,C11<49>,C11<48>,C11<47>,C11<46>,C11<45>,C11<44>,C11<43>,C11<42>,C11<41>,C11<40>,C11<39>,C11<38>,C11<37>,C11<36>,C11<35>,C11<34>,C11<33>,C11<32>,C11<31>,C11<30>,C11<29>,C11<28>,C11<27>,C11<26>,C11<25>,C11<24>,C11<23>,C11<22>,C11<21>,C11<20>,C11<19>,C11<18>,C11<17>,C11<16>,C11<15>,C11<14>,C11<13>,C11<12>,C11<11>,C11<10>,C11<9>,C11<8>,C11<7>,C11<6>,C11<5>,C11<4>,C11<3>,C11<2>,C11<1>,C11<0> ?1 outp ?1 net11<2>,net11<1>,net11<0>  sky130_fd_pr__cap_mim_m3_1 W=1 L=1 MF=1 m=1
**** end_element
**** spice_prefix X
C14<511>,C14<510>,C14<509>,C14<508>,C14<507>,C14<506>,C14<505>,C14<504>,C14<503>,C14<502>,C14<501>,C14<500>,C14<499>,C14<498>,C14<497>,C14<496>,C14<495>,C14<494>,C14<493>,C14<492>,C14<491>,C14<490>,C14<489>,C14<488>,C14<487>,C14<486>,C14<485>,C14<484>,C14<483>,C14<482>,C14<481>,C14<480>,C14<479>,C14<478>,C14<477>,C14<476>,C14<475>,C14<474>,C14<473>,C14<472>,C14<471>,C14<470>,C14<469>,C14<468>,C14<467>,C14<466>,C14<465>,C14<464>,C14<463>,C14<462>,C14<461>,C14<460>,C14<459>,C14<458>,C14<457>,C14<456>,C14<455>,C14<454>,C14<453>,C14<452>,C14<451>,C14<450>,C14<449>,C14<448>,C14<447>,C14<446>,C14<445>,C14<444>,C14<443>,C14<442>,C14<441>,C14<440>,C14<439>,C14<438>,C14<437>,C14<436>,C14<435>,C14<434>,C14<433>,C14<432>,C14<431>,C14<430>,C14<429>,C14<428>,C14<427>,C14<426>,C14<425>,C14<424>,C14<423>,C14<422>,C14<421>,C14<420>,C14<419>,C14<418>,C14<417>,C14<416>,C14<415>,C14<414>,C14<413>,C14<412>,C14<411>,C14<410>,C14<409>,C14<408>,C14<407>,C14<406>,C14<405>,C14<404>,C14<403>,C14<402>,C14<401>,C14<400>,C14<399>,C14<398>,C14<397>,C14<396>,C14<395>,C14<394>,C14<393>,C14<392>,C14<391>,C14<390>,C14<389>,C14<388>,C14<387>,C14<386>,C14<385>,C14<384>,C14<383>,C14<382>,C14<381>,C14<380>,C14<379>,C14<378>,C14<377>,C14<376>,C14<375>,C14<374>,C14<373>,C14<372>,C14<371>,C14<370>,C14<369>,C14<368>,C14<367>,C14<366>,C14<365>,C14<364>,C14<363>,C14<362>,C14<361>,C14<360>,C14<359>,C14<358>,C14<357>,C14<356>,C14<355>,C14<354>,C14<353>,C14<352>,C14<351>,C14<350>,C14<349>,C14<348>,C14<347>,C14<346>,C14<345>,C14<344>,C14<343>,C14<342>,C14<341>,C14<340>,C14<339>,C14<338>,C14<337>,C14<336>,C14<335>,C14<334>,C14<333>,C14<332>,C14<331>,C14<330>,C14<329>,C14<328>,C14<327>,C14<326>,C14<325>,C14<324>,C14<323>,C14<322>,C14<321>,C14<320>,C14<319>,C14<318>,C14<317>,C14<316>,C14<315>,C14<314>,C14<313>,C14<312>,C14<311>,C14<310>,C14<309>,C14<308>,C14<307>,C14<306>,C14<305>,C14<304>,C14<303>,C14<302>,C14<301>,C14<300>,C14<299>,C14<298>,C14<297>,C14<296>,C14<295>,C14<294>,C14<293>,C14<292>,C14<291>,C14<290>,C14<289>,C14<288>,C14<287>,C14<286>,C14<285>,C14<284>,C14<283>,C14<282>,C14<281>,C14<280>,C14<279>,C14<278>,C14<277>,C14<276>,C14<275>,C14<274>,C14<273>,C14<272>,C14<271>,C14<270>,C14<269>,C14<268>,C14<267>,C14<266>,C14<265>,C14<264>,C14<263>,C14<262>,C14<261>,C14<260>,C14<259>,C14<258>,C14<257>,C14<256>,C14<255>,C14<254>,C14<253>,C14<252>,C14<251>,C14<250>,C14<249>,C14<248>,C14<247>,C14<246>,C14<245>,C14<244>,C14<243>,C14<242>,C14<241>,C14<240>,C14<239>,C14<238>,C14<237>,C14<236>,C14<235>,C14<234>,C14<233>,C14<232>,C14<231>,C14<230>,C14<229>,C14<228>,C14<227>,C14<226>,C14<225>,C14<224>,C14<223>,C14<222>,C14<221>,C14<220>,C14<219>,C14<218>,C14<217>,C14<216>,C14<215>,C14<214>,C14<213>,C14<212>,C14<211>,C14<210>,C14<209>,C14<208>,C14<207>,C14<206>,C14<205>,C14<204>,C14<203>,C14<202>,C14<201>,C14<200>,C14<199>,C14<198>,C14<197>,C14<196>,C14<195>,C14<194>,C14<193>,C14<192>,C14<191>,C14<190>,C14<189>,C14<188>,C14<187>,C14<186>,C14<185>,C14<184>,C14<183>,C14<182>,C14<181>,C14<180>,C14<179>,C14<178>,C14<177>,C14<176>,C14<175>,C14<174>,C14<173>,C14<172>,C14<171>,C14<170>,C14<169>,C14<168>,C14<167>,C14<166>,C14<165>,C14<164>,C14<163>,C14<162>,C14<161>,C14<160>,C14<159>,C14<158>,C14<157>,C14<156>,C14<155>,C14<154>,C14<153>,C14<152>,C14<151>,C14<150>,C14<149>,C14<148>,C14<147>,C14<146>,C14<145>,C14<144>,C14<143>,C14<142>,C14<141>,C14<140>,C14<139>,C14<138>,C14<137>,C14<136>,C14<135>,C14<134>,C14<133>,C14<132>,C14<131>,C14<130>,C14<129>,C14<128>,C14<127>,C14<126>,C14<125>,C14<124>,C14<123>,C14<122>,C14<121>,C14<120>,C14<119>,C14<118>,C14<117>,C14<116>,C14<115>,C14<114>,C14<113>,C14<112>,C14<111>,C14<110>,C14<109>,C14<108>,C14<107>,C14<106>,C14<105>,C14<104>,C14<103>,C14<102>,C14<101>,C14<100>,C14<99>,C14<98>,C14<97>,C14<96>,C14<95>,C14<94>,C14<93>,C14<92>,C14<91>,C14<90>,C14<89>,C14<88>,C14<87>,C14<86>,C14<85>,C14<84>,C14<83>,C14<82>,C14<81>,C14<80>,C14<79>,C14<78>,C14<77>,C14<76>,C14<75>,C14<74>,C14<73>,C14<72>,C14<71>,C14<70>,C14<69>,C14<68>,C14<67>,C14<66>,C14<65>,C14<64>,C14<63>,C14<62>,C14<61>,C14<60>,C14<59>,C14<58>,C14<57>,C14<56>,C14<55>,C14<54>,C14<53>,C14<52>,C14<51>,C14<50>,C14<49>,C14<48>,C14<47>,C14<46>,C14<45>,C14<44>,C14<43>,C14<42>,C14<41>,C14<40>,C14<39>,C14<38>,C14<37>,C14<36>,C14<35>,C14<34>,C14<33>,C14<32>,C14<31>,C14<30>,C14<29>,C14<28>,C14<27>,C14<26>,C14<25>,C14<24>,C14<23>,C14<22>,C14<21>,C14<20>,C14<19>,C14<18>,C14<17>,C14<16>,C14<15>,C14<14>,C14<13>,C14<12>,C14<11>,C14<10>,C14<9>,C14<8>,C14<7>,C14<6>,C14<5>,C14<4>,C14<3>,C14<2>,C14<1>,C14<0> ?1 net14<2>,net14<1>,net14<0> ?1 outn  sky130_fd_pr__cap_mim_m3_1 W=1 L=1 MF=1 m=1
**** end_element
**** spice_prefix X
M19<2>,M19<1>,M19<0> ?1 net13<2>,net13<1>,net13<0> ?1 sw<6> ?1 net14<2>,net14<1>,net14<0>  GND sky130_fd_pr__nfet_01v8_lvt L=0.15 W=4.8
+ nf=11 ad='int((nf+1)/2) * W/nf * 0.29' as='int((nf+2)/2) * W/nf * 0.29' pd='2*int((nf+1)/2) * (W/nf + 0.29)' ps='2*int((nf+2)/2) * (W/nf + 0.29)'
+ nrd='0.29 / W' nrs='0.29 / W' sa=0 sb=0 sd=0
+ mult=2 m=2
**** end_element
**** spice_prefix X
M20<2>,M20<1>,M20<0> ?1 GND ?1 sw<6> ?1 net13<2>,net13<1>,net13<0>  GND sky130_fd_pr__nfet_01v8_lvt L=0.15 W=1
+ nf=2 ad='int((nf+1)/2) * W/nf * 0.29' as='int((nf+2)/2) * W/nf * 0.29' pd='2*int((nf+1)/2) * (W/nf + 0.29)' ps='2*int((nf+2)/2) * (W/nf + 0.29)'
+ nrd='0.29 / W' nrs='0.29 / W' sa=0 sb=0 sd=0
+ mult=1 m=1
**** end_element
**** spice_prefix X
M21<2>,M21<1>,M21<0> ?1 GND ?1 sw<6> ?1 net14<2>,net14<1>,net14<0>  GND sky130_fd_pr__nfet_01v8_lvt L=0.15 W=1
+ nf=2 ad='int((nf+1)/2) * W/nf * 0.29' as='int((nf+2)/2) * W/nf * 0.29' pd='2*int((nf+1)/2) * (W/nf + 0.29)' ps='2*int((nf+2)/2) * (W/nf + 0.29)'
+ nrd='0.29 / W' nrs='0.29 / W' sa=0 sb=0 sd=0
+ mult=1 m=1
**** end_element
**** spice_prefix X
C13<511>,C13<510>,C13<509>,C13<508>,C13<507>,C13<506>,C13<505>,C13<504>,C13<503>,C13<502>,C13<501>,C13<500>,C13<499>,C13<498>,C13<497>,C13<496>,C13<495>,C13<494>,C13<493>,C13<492>,C13<491>,C13<490>,C13<489>,C13<488>,C13<487>,C13<486>,C13<485>,C13<484>,C13<483>,C13<482>,C13<481>,C13<480>,C13<479>,C13<478>,C13<477>,C13<476>,C13<475>,C13<474>,C13<473>,C13<472>,C13<471>,C13<470>,C13<469>,C13<468>,C13<467>,C13<466>,C13<465>,C13<464>,C13<463>,C13<462>,C13<461>,C13<460>,C13<459>,C13<458>,C13<457>,C13<456>,C13<455>,C13<454>,C13<453>,C13<452>,C13<451>,C13<450>,C13<449>,C13<448>,C13<447>,C13<446>,C13<445>,C13<444>,C13<443>,C13<442>,C13<441>,C13<440>,C13<439>,C13<438>,C13<437>,C13<436>,C13<435>,C13<434>,C13<433>,C13<432>,C13<431>,C13<430>,C13<429>,C13<428>,C13<427>,C13<426>,C13<425>,C13<424>,C13<423>,C13<422>,C13<421>,C13<420>,C13<419>,C13<418>,C13<417>,C13<416>,C13<415>,C13<414>,C13<413>,C13<412>,C13<411>,C13<410>,C13<409>,C13<408>,C13<407>,C13<406>,C13<405>,C13<404>,C13<403>,C13<402>,C13<401>,C13<400>,C13<399>,C13<398>,C13<397>,C13<396>,C13<395>,C13<394>,C13<393>,C13<392>,C13<391>,C13<390>,C13<389>,C13<388>,C13<387>,C13<386>,C13<385>,C13<384>,C13<383>,C13<382>,C13<381>,C13<380>,C13<379>,C13<378>,C13<377>,C13<376>,C13<375>,C13<374>,C13<373>,C13<372>,C13<371>,C13<370>,C13<369>,C13<368>,C13<367>,C13<366>,C13<365>,C13<364>,C13<363>,C13<362>,C13<361>,C13<360>,C13<359>,C13<358>,C13<357>,C13<356>,C13<355>,C13<354>,C13<353>,C13<352>,C13<351>,C13<350>,C13<349>,C13<348>,C13<347>,C13<346>,C13<345>,C13<344>,C13<343>,C13<342>,C13<341>,C13<340>,C13<339>,C13<338>,C13<337>,C13<336>,C13<335>,C13<334>,C13<333>,C13<332>,C13<331>,C13<330>,C13<329>,C13<328>,C13<327>,C13<326>,C13<325>,C13<324>,C13<323>,C13<322>,C13<321>,C13<320>,C13<319>,C13<318>,C13<317>,C13<316>,C13<315>,C13<314>,C13<313>,C13<312>,C13<311>,C13<310>,C13<309>,C13<308>,C13<307>,C13<306>,C13<305>,C13<304>,C13<303>,C13<302>,C13<301>,C13<300>,C13<299>,C13<298>,C13<297>,C13<296>,C13<295>,C13<294>,C13<293>,C13<292>,C13<291>,C13<290>,C13<289>,C13<288>,C13<287>,C13<286>,C13<285>,C13<284>,C13<283>,C13<282>,C13<281>,C13<280>,C13<279>,C13<278>,C13<277>,C13<276>,C13<275>,C13<274>,C13<273>,C13<272>,C13<271>,C13<270>,C13<269>,C13<268>,C13<267>,C13<266>,C13<265>,C13<264>,C13<263>,C13<262>,C13<261>,C13<260>,C13<259>,C13<258>,C13<257>,C13<256>,C13<255>,C13<254>,C13<253>,C13<252>,C13<251>,C13<250>,C13<249>,C13<248>,C13<247>,C13<246>,C13<245>,C13<244>,C13<243>,C13<242>,C13<241>,C13<240>,C13<239>,C13<238>,C13<237>,C13<236>,C13<235>,C13<234>,C13<233>,C13<232>,C13<231>,C13<230>,C13<229>,C13<228>,C13<227>,C13<226>,C13<225>,C13<224>,C13<223>,C13<222>,C13<221>,C13<220>,C13<219>,C13<218>,C13<217>,C13<216>,C13<215>,C13<214>,C13<213>,C13<212>,C13<211>,C13<210>,C13<209>,C13<208>,C13<207>,C13<206>,C13<205>,C13<204>,C13<203>,C13<202>,C13<201>,C13<200>,C13<199>,C13<198>,C13<197>,C13<196>,C13<195>,C13<194>,C13<193>,C13<192>,C13<191>,C13<190>,C13<189>,C13<188>,C13<187>,C13<186>,C13<185>,C13<184>,C13<183>,C13<182>,C13<181>,C13<180>,C13<179>,C13<178>,C13<177>,C13<176>,C13<175>,C13<174>,C13<173>,C13<172>,C13<171>,C13<170>,C13<169>,C13<168>,C13<167>,C13<166>,C13<165>,C13<164>,C13<163>,C13<162>,C13<161>,C13<160>,C13<159>,C13<158>,C13<157>,C13<156>,C13<155>,C13<154>,C13<153>,C13<152>,C13<151>,C13<150>,C13<149>,C13<148>,C13<147>,C13<146>,C13<145>,C13<144>,C13<143>,C13<142>,C13<141>,C13<140>,C13<139>,C13<138>,C13<137>,C13<136>,C13<135>,C13<134>,C13<133>,C13<132>,C13<131>,C13<130>,C13<129>,C13<128>,C13<127>,C13<126>,C13<125>,C13<124>,C13<123>,C13<122>,C13<121>,C13<120>,C13<119>,C13<118>,C13<117>,C13<116>,C13<115>,C13<114>,C13<113>,C13<112>,C13<111>,C13<110>,C13<109>,C13<108>,C13<107>,C13<106>,C13<105>,C13<104>,C13<103>,C13<102>,C13<101>,C13<100>,C13<99>,C13<98>,C13<97>,C13<96>,C13<95>,C13<94>,C13<93>,C13<92>,C13<91>,C13<90>,C13<89>,C13<88>,C13<87>,C13<86>,C13<85>,C13<84>,C13<83>,C13<82>,C13<81>,C13<80>,C13<79>,C13<78>,C13<77>,C13<76>,C13<75>,C13<74>,C13<73>,C13<72>,C13<71>,C13<70>,C13<69>,C13<68>,C13<67>,C13<66>,C13<65>,C13<64>,C13<63>,C13<62>,C13<61>,C13<60>,C13<59>,C13<58>,C13<57>,C13<56>,C13<55>,C13<54>,C13<53>,C13<52>,C13<51>,C13<50>,C13<49>,C13<48>,C13<47>,C13<46>,C13<45>,C13<44>,C13<43>,C13<42>,C13<41>,C13<40>,C13<39>,C13<38>,C13<37>,C13<36>,C13<35>,C13<34>,C13<33>,C13<32>,C13<31>,C13<30>,C13<29>,C13<28>,C13<27>,C13<26>,C13<25>,C13<24>,C13<23>,C13<22>,C13<21>,C13<20>,C13<19>,C13<18>,C13<17>,C13<16>,C13<15>,C13<14>,C13<13>,C13<12>,C13<11>,C13<10>,C13<9>,C13<8>,C13<7>,C13<6>,C13<5>,C13<4>,C13<3>,C13<2>,C13<1>,C13<0> ?1 outp ?1 net13<2>,net13<1>,net13<0>  sky130_fd_pr__cap_mim_m3_1 W=1 L=1 MF=1 m=1
**** end_element
**** spice_prefix X