* File: sky130_osu_sc_12T_hs__addf_1.spice
* Created: Mon Nov 16 20:37:05 2020
* Program "Calibre xRC"
* Version "v2020.2_35.23"
*
.include "sky130_osu_sc_12T_hs__addf_1.pex.spice"
.subckt sky130_osu_sc_12T_hs__addf_1  GND VDD A B CI CON S CO
*
* CO	CO
* S	S
* CON	CON
* CI	CI
* B	B
* A	A
* VDD	VDD
* GND	GND
MM1013 N_GND_M1013_d N_A_M1013_g N_A_27_115#_M1013_s N_GND_M1013_b NLOWVT L=0.15
+ W=0.55 AD=0.077 AS=0.14575 PD=0.83 PS=1.63 NRD=0 NRS=0 M=1 R=3.66667
+ SA=75000.2 SB=75005.3 A=0.0825 P=1.4 MULT=1
MM1001 N_A_27_115#_M1001_d N_B_M1001_g N_GND_M1013_d N_GND_M1013_b NLOWVT L=0.15
+ W=0.55 AD=0.077 AS=0.077 PD=0.83 PS=0.83 NRD=0 NRS=0 M=1 R=3.66667 SA=75000.6
+ SB=75004.9 A=0.0825 P=1.4 MULT=1
MM1003 N_CON_M1003_d N_CI_M1003_g N_A_27_115#_M1001_d N_GND_M1013_b NLOWVT
+ L=0.15 W=0.55 AD=0.077 AS=0.077 PD=0.83 PS=0.83 NRD=0 NRS=0 M=1 R=3.66667
+ SA=75001.1 SB=75004.4 A=0.0825 P=1.4 MULT=1
MM1025 A_368_115# N_B_M1025_g N_CON_M1003_d N_GND_M1013_b NLOWVT L=0.15 W=0.55
+ AD=0.05775 AS=0.077 PD=0.76 PS=0.83 NRD=10.908 NRS=0 M=1 R=3.66667 SA=75001.5
+ SB=75004 A=0.0825 P=1.4 MULT=1
MM1027 N_GND_M1027_d N_A_M1027_g A_368_115# N_GND_M1013_b NLOWVT L=0.15 W=0.55
+ AD=0.077 AS=0.05775 PD=0.83 PS=0.76 NRD=0 NRS=10.908 M=1 R=3.66667 SA=75001.8
+ SB=75003.6 A=0.0825 P=1.4 MULT=1
MM1022 N_A_526_115#_M1022_d N_A_M1022_g N_GND_M1027_d N_GND_M1013_b NLOWVT
+ L=0.15 W=0.55 AD=0.077 AS=0.077 PD=0.83 PS=0.83 NRD=0 NRS=0 M=1 R=3.66667
+ SA=75002.3 SB=75003.2 A=0.0825 P=1.4 MULT=1
MM1024 N_GND_M1024_d N_B_M1024_g N_A_526_115#_M1022_d N_GND_M1013_b NLOWVT
+ L=0.15 W=0.55 AD=0.077 AS=0.077 PD=0.83 PS=0.83 NRD=0 NRS=0 M=1 R=3.66667
+ SA=75002.7 SB=75002.8 A=0.0825 P=1.4 MULT=1
MM1014 N_A_526_115#_M1014_d N_CI_M1014_g N_GND_M1024_d N_GND_M1013_b NLOWVT
+ L=0.15 W=0.55 AD=0.077 AS=0.077 PD=0.83 PS=0.83 NRD=0 NRS=0 M=1 R=3.66667
+ SA=75003.1 SB=75002.4 A=0.0825 P=1.4 MULT=1
MM1015 N_A_784_115#_M1015_d N_CON_M1015_g N_A_526_115#_M1014_d N_GND_M1013_b
+ NLOWVT L=0.15 W=0.55 AD=0.077 AS=0.077 PD=0.83 PS=0.83 NRD=0 NRS=0 M=1
+ R=3.66667 SA=75003.6 SB=75001.9 A=0.0825 P=1.4 MULT=1
MM1017 A_870_115# N_B_M1017_g N_A_784_115#_M1015_d N_GND_M1013_b NLOWVT L=0.15
+ W=0.55 AD=0.0715 AS=0.077 PD=0.81 PS=0.83 NRD=16.356 NRS=0 M=1 R=3.66667
+ SA=75004 SB=75001.5 A=0.0825 P=1.4 MULT=1
MM1008 A_952_115# N_CI_M1008_g A_870_115# N_GND_M1013_b NLOWVT L=0.15 W=0.55
+ AD=0.0715 AS=0.0715 PD=0.81 PS=0.81 NRD=16.356 NRS=16.356 M=1 R=3.66667
+ SA=75004.4 SB=75001.1 A=0.0825 P=1.4 MULT=1
MM1004 N_GND_M1004_d N_A_M1004_g A_952_115# N_GND_M1013_b NLOWVT L=0.15 W=0.55
+ AD=0.0935 AS=0.0715 PD=0.89 PS=0.81 NRD=0 NRS=16.356 M=1 R=3.66667 SA=75004.8
+ SB=75000.7 A=0.0825 P=1.4 MULT=1
MM1018 N_S_M1018_d N_A_784_115#_M1018_g N_GND_M1004_d N_GND_M1013_b NLOWVT
+ L=0.15 W=0.55 AD=0.14575 AS=0.0935 PD=1.63 PS=0.89 NRD=0 NRS=13.08 M=1
+ R=3.66667 SA=75005.3 SB=75000.2 A=0.0825 P=1.4 MULT=1
MM1023 N_CO_M1023_d N_CON_M1023_g N_GND_M1023_s N_GND_M1013_b NLOWVT L=0.15
+ W=0.55 AD=0.14575 AS=0.14575 PD=1.63 PS=1.63 NRD=0 NRS=0 M=1 R=3.66667
+ SA=75000.2 SB=75000.2 A=0.0825 P=1.4 MULT=1
MM1000 N_VDD_M1000_d N_A_M1000_g N_A_27_521#_M1000_s N_VDD_M1000_b PSHORT L=0.15
+ W=1.26 AD=0.1764 AS=0.3339 PD=1.54 PS=3.05 NRD=0 NRS=0 M=1 R=8.4 SA=75000.2
+ SB=75005.3 A=0.189 P=2.82 MULT=1
MM1019 N_A_27_521#_M1019_d N_B_M1019_g N_VDD_M1000_d N_VDD_M1000_b PSHORT L=0.15
+ W=1.26 AD=0.1764 AS=0.1764 PD=1.54 PS=1.54 NRD=0 NRS=0 M=1 R=8.4 SA=75000.6
+ SB=75004.9 A=0.189 P=2.82 MULT=1
MM1020 N_CON_M1020_d N_CI_M1020_g N_A_27_521#_M1019_d N_VDD_M1000_b PSHORT
+ L=0.15 W=1.26 AD=0.1764 AS=0.1764 PD=1.54 PS=1.54 NRD=0 NRS=0 M=1 R=8.4
+ SA=75001.1 SB=75004.4 A=0.189 P=2.82 MULT=1
MM1012 A_368_521# N_B_M1012_g N_CON_M1020_d N_VDD_M1000_b PSHORT L=0.15 W=1.26
+ AD=0.1323 AS=0.1764 PD=1.47 PS=1.54 NRD=7.8012 NRS=0 M=1 R=8.4 SA=75001.5
+ SB=75004 A=0.189 P=2.82 MULT=1
MM1016 N_VDD_M1016_d N_A_M1016_g A_368_521# N_VDD_M1000_b PSHORT L=0.15 W=1.26
+ AD=0.1764 AS=0.1323 PD=1.54 PS=1.47 NRD=0 NRS=7.8012 M=1 R=8.4 SA=75001.8
+ SB=75003.6 A=0.189 P=2.82 MULT=1
MM1009 N_A_526_521#_M1009_d N_A_M1009_g N_VDD_M1016_d N_VDD_M1000_b PSHORT
+ L=0.15 W=1.26 AD=0.1764 AS=0.1764 PD=1.54 PS=1.54 NRD=0 NRS=0 M=1 R=8.4
+ SA=75002.3 SB=75003.2 A=0.189 P=2.82 MULT=1
MM1011 N_VDD_M1011_d N_B_M1011_g N_A_526_521#_M1009_d N_VDD_M1000_b PSHORT
+ L=0.15 W=1.26 AD=0.1764 AS=0.1764 PD=1.54 PS=1.54 NRD=0 NRS=0 M=1 R=8.4
+ SA=75002.7 SB=75002.8 A=0.189 P=2.82 MULT=1
MM1002 N_A_526_521#_M1002_d N_CI_M1002_g N_VDD_M1011_d N_VDD_M1000_b PSHORT
+ L=0.15 W=1.26 AD=0.1764 AS=0.1764 PD=1.54 PS=1.54 NRD=0 NRS=0 M=1 R=8.4
+ SA=75003.1 SB=75002.4 A=0.189 P=2.82 MULT=1
MM1005 N_A_784_115#_M1005_d N_CON_M1005_g N_A_526_521#_M1002_d N_VDD_M1000_b
+ PSHORT L=0.15 W=1.26 AD=0.1764 AS=0.1764 PD=1.54 PS=1.54 NRD=0 NRS=0 M=1 R=8.4
+ SA=75003.6 SB=75001.9 A=0.189 P=2.82 MULT=1
MM1006 A_870_521# N_B_M1006_g N_A_784_115#_M1005_d N_VDD_M1000_b PSHORT L=0.15
+ W=1.26 AD=0.1638 AS=0.1764 PD=1.52 PS=1.54 NRD=11.7215 NRS=0 M=1 R=8.4
+ SA=75004 SB=75001.5 A=0.189 P=2.82 MULT=1
MM1026 A_952_521# N_CI_M1026_g A_870_521# N_VDD_M1000_b PSHORT L=0.15 W=1.26
+ AD=0.1638 AS=0.1638 PD=1.52 PS=1.52 NRD=11.7215 NRS=11.7215 M=1 R=8.4
+ SA=75004.4 SB=75001.1 A=0.189 P=2.82 MULT=1
MM1021 N_VDD_M1021_d N_A_M1021_g A_952_521# N_VDD_M1000_b PSHORT L=0.15 W=1.26
+ AD=0.2142 AS=0.1638 PD=1.6 PS=1.52 NRD=0 NRS=11.7215 M=1 R=8.4 SA=75004.8
+ SB=75000.7 A=0.189 P=2.82 MULT=1
MM1007 N_S_M1007_d N_A_784_115#_M1007_g N_VDD_M1021_d N_VDD_M1000_b PSHORT
+ L=0.15 W=1.26 AD=0.3339 AS=0.2142 PD=3.05 PS=1.6 NRD=0 NRS=9.3772 M=1 R=8.4
+ SA=75005.3 SB=75000.2 A=0.189 P=2.82 MULT=1
MM1010 N_CO_M1010_d N_CON_M1010_g N_VDD_M1010_s N_VDD_M1000_b PSHORT L=0.15
+ W=1.26 AD=0.3339 AS=0.3339 PD=3.05 PS=3.05 NRD=0 NRS=0 M=1 R=8.4 SA=75000.2
+ SB=75000.2 A=0.189 P=2.82 MULT=1
DX28_noxref N_GND_M1013_b N_VDD_M1000_b NWDIODE A=14.8732 P=18.56
pX29_noxref noxref_20 A A PROBETYPE=1
pX30_noxref noxref_21 B B PROBETYPE=1
pX31_noxref noxref_22 CI CI PROBETYPE=1
pX32_noxref noxref_23 S S PROBETYPE=1
pX33_noxref noxref_24 CON CON PROBETYPE=1
pX34_noxref noxref_25 CO CO PROBETYPE=1
*
.include "sky130_osu_sc_12T_hs__addf_1.pxi.spice"
*
.ends
*
*


* File: sky130_osu_sc_12T_hs__addf_l.spice
* Created: Mon Nov 16 20:37:11 2020
* Program "Calibre xRC"
* Version "v2020.2_35.23"
*
.include "sky130_osu_sc_12T_hs__addf_l.pex.spice"
.subckt sky130_osu_sc_12T_hs__addf_l  GND VDD A B CI CON S CO
*
* CO	CO
* S	S
* CON	CON
* CI	CI
* B	B
* A	A
* VDD	VDD
* GND	GND
MM1012 N_GND_M1012_d N_A_M1012_g N_A_27_115#_M1012_s N_GND_M1012_b NLOWVT L=0.15
+ W=0.55 AD=0.077 AS=0.14575 PD=0.83 PS=1.63 NRD=0 NRS=0 M=1 R=3.66667
+ SA=75000.2 SB=75005.3 A=0.0825 P=1.4 MULT=1
MM1001 N_A_27_115#_M1001_d N_B_M1001_g N_GND_M1012_d N_GND_M1012_b NLOWVT L=0.15
+ W=0.55 AD=0.077 AS=0.077 PD=0.83 PS=0.83 NRD=0 NRS=0 M=1 R=3.66667 SA=75000.6
+ SB=75004.9 A=0.0825 P=1.4 MULT=1
MM1003 N_CON_M1003_d N_CI_M1003_g N_A_27_115#_M1001_d N_GND_M1012_b NLOWVT
+ L=0.15 W=0.55 AD=0.077 AS=0.077 PD=0.83 PS=0.83 NRD=0 NRS=0 M=1 R=3.66667
+ SA=75001.1 SB=75004.4 A=0.0825 P=1.4 MULT=1
MM1025 A_368_115# N_B_M1025_g N_CON_M1003_d N_GND_M1012_b NLOWVT L=0.15 W=0.55
+ AD=0.05775 AS=0.077 PD=0.76 PS=0.83 NRD=10.908 NRS=0 M=1 R=3.66667 SA=75001.5
+ SB=75004 A=0.0825 P=1.4 MULT=1
MM1027 N_GND_M1027_d N_A_M1027_g A_368_115# N_GND_M1012_b NLOWVT L=0.15 W=0.55
+ AD=0.077 AS=0.05775 PD=0.83 PS=0.76 NRD=0 NRS=10.908 M=1 R=3.66667 SA=75001.8
+ SB=75003.6 A=0.0825 P=1.4 MULT=1
MM1022 N_A_526_115#_M1022_d N_A_M1022_g N_GND_M1027_d N_GND_M1012_b NLOWVT
+ L=0.15 W=0.55 AD=0.077 AS=0.077 PD=0.83 PS=0.83 NRD=0 NRS=0 M=1 R=3.66667
+ SA=75002.3 SB=75003.2 A=0.0825 P=1.4 MULT=1
MM1024 N_GND_M1024_d N_B_M1024_g N_A_526_115#_M1022_d N_GND_M1012_b NLOWVT
+ L=0.15 W=0.55 AD=0.077 AS=0.077 PD=0.83 PS=0.83 NRD=0 NRS=0 M=1 R=3.66667
+ SA=75002.7 SB=75002.8 A=0.0825 P=1.4 MULT=1
MM1013 N_A_526_115#_M1013_d N_CI_M1013_g N_GND_M1024_d N_GND_M1012_b NLOWVT
+ L=0.15 W=0.55 AD=0.077 AS=0.077 PD=0.83 PS=0.83 NRD=0 NRS=0 M=1 R=3.66667
+ SA=75003.1 SB=75002.4 A=0.0825 P=1.4 MULT=1
MM1014 N_A_784_115#_M1014_d N_CON_M1014_g N_A_526_115#_M1013_d N_GND_M1012_b
+ NLOWVT L=0.15 W=0.55 AD=0.077 AS=0.077 PD=0.83 PS=0.83 NRD=0 NRS=0 M=1
+ R=3.66667 SA=75003.6 SB=75001.9 A=0.0825 P=1.4 MULT=1
MM1016 A_870_115# N_B_M1016_g N_A_784_115#_M1014_d N_GND_M1012_b NLOWVT L=0.15
+ W=0.55 AD=0.0715 AS=0.077 PD=0.81 PS=0.83 NRD=16.356 NRS=0 M=1 R=3.66667
+ SA=75004 SB=75001.5 A=0.0825 P=1.4 MULT=1
MM1008 A_952_115# N_CI_M1008_g A_870_115# N_GND_M1012_b NLOWVT L=0.15 W=0.55
+ AD=0.0715 AS=0.0715 PD=0.81 PS=0.81 NRD=16.356 NRS=16.356 M=1 R=3.66667
+ SA=75004.4 SB=75001.1 A=0.0825 P=1.4 MULT=1
MM1004 N_GND_M1004_d N_A_M1004_g A_952_115# N_GND_M1012_b NLOWVT L=0.15 W=0.55
+ AD=0.0935 AS=0.0715 PD=0.89 PS=0.81 NRD=0 NRS=16.356 M=1 R=3.66667 SA=75004.8
+ SB=75000.7 A=0.0825 P=1.4 MULT=1
MM1017 N_S_M1017_d N_A_784_115#_M1017_g N_GND_M1004_d N_GND_M1012_b NLOWVT
+ L=0.15 W=0.55 AD=0.14575 AS=0.0935 PD=1.63 PS=0.89 NRD=0 NRS=13.08 M=1
+ R=3.66667 SA=75005.3 SB=75000.2 A=0.0825 P=1.4 MULT=1
MM1023 N_CO_M1023_d N_CON_M1023_g N_GND_M1023_s N_GND_M1012_b NLOWVT L=0.15
+ W=0.42 AD=0.1113 AS=0.1113 PD=1.37 PS=1.37 NRD=0 NRS=0 M=1 R=2.8 SA=75000.2
+ SB=75000.2 A=0.063 P=1.14 MULT=1
MM1000 N_VDD_M1000_d N_A_M1000_g N_A_27_521#_M1000_s N_VDD_M1000_b PSHORT L=0.15
+ W=1.26 AD=0.1764 AS=0.3339 PD=1.54 PS=3.05 NRD=0 NRS=0 M=1 R=8.4 SA=75000.2
+ SB=75005.3 A=0.189 P=2.82 MULT=1
MM1019 N_A_27_521#_M1019_d N_B_M1019_g N_VDD_M1000_d N_VDD_M1000_b PSHORT L=0.15
+ W=1.26 AD=0.1764 AS=0.1764 PD=1.54 PS=1.54 NRD=0 NRS=0 M=1 R=8.4 SA=75000.6
+ SB=75004.9 A=0.189 P=2.82 MULT=1
MM1020 N_CON_M1020_d N_CI_M1020_g N_A_27_521#_M1019_d N_VDD_M1000_b PSHORT
+ L=0.15 W=1.26 AD=0.1764 AS=0.1764 PD=1.54 PS=1.54 NRD=0 NRS=0 M=1 R=8.4
+ SA=75001.1 SB=75004.4 A=0.189 P=2.82 MULT=1
MM1011 A_368_521# N_B_M1011_g N_CON_M1020_d N_VDD_M1000_b PSHORT L=0.15 W=1.26
+ AD=0.1323 AS=0.1764 PD=1.47 PS=1.54 NRD=7.8012 NRS=0 M=1 R=8.4 SA=75001.5
+ SB=75004 A=0.189 P=2.82 MULT=1
MM1015 N_VDD_M1015_d N_A_M1015_g A_368_521# N_VDD_M1000_b PSHORT L=0.15 W=1.26
+ AD=0.1764 AS=0.1323 PD=1.54 PS=1.47 NRD=0 NRS=7.8012 M=1 R=8.4 SA=75001.8
+ SB=75003.6 A=0.189 P=2.82 MULT=1
MM1009 N_A_526_521#_M1009_d N_A_M1009_g N_VDD_M1015_d N_VDD_M1000_b PSHORT
+ L=0.15 W=1.26 AD=0.1764 AS=0.1764 PD=1.54 PS=1.54 NRD=0 NRS=0 M=1 R=8.4
+ SA=75002.3 SB=75003.2 A=0.189 P=2.82 MULT=1
MM1010 N_VDD_M1010_d N_B_M1010_g N_A_526_521#_M1009_d N_VDD_M1000_b PSHORT
+ L=0.15 W=1.26 AD=0.1764 AS=0.1764 PD=1.54 PS=1.54 NRD=0 NRS=0 M=1 R=8.4
+ SA=75002.7 SB=75002.8 A=0.189 P=2.82 MULT=1
MM1002 N_A_526_521#_M1002_d N_CI_M1002_g N_VDD_M1010_d N_VDD_M1000_b PSHORT
+ L=0.15 W=1.26 AD=0.1764 AS=0.1764 PD=1.54 PS=1.54 NRD=0 NRS=0 M=1 R=8.4
+ SA=75003.1 SB=75002.4 A=0.189 P=2.82 MULT=1
MM1005 N_A_784_115#_M1005_d N_CON_M1005_g N_A_526_521#_M1002_d N_VDD_M1000_b
+ PSHORT L=0.15 W=1.26 AD=0.1764 AS=0.1764 PD=1.54 PS=1.54 NRD=0 NRS=0 M=1 R=8.4
+ SA=75003.6 SB=75001.9 A=0.189 P=2.82 MULT=1
MM1006 A_870_521# N_B_M1006_g N_A_784_115#_M1005_d N_VDD_M1000_b PSHORT L=0.15
+ W=1.26 AD=0.1638 AS=0.1764 PD=1.52 PS=1.54 NRD=11.7215 NRS=0 M=1 R=8.4
+ SA=75004 SB=75001.5 A=0.189 P=2.82 MULT=1
MM1026 A_952_521# N_CI_M1026_g A_870_521# N_VDD_M1000_b PSHORT L=0.15 W=1.26
+ AD=0.1638 AS=0.1638 PD=1.52 PS=1.52 NRD=11.7215 NRS=11.7215 M=1 R=8.4
+ SA=75004.4 SB=75001.1 A=0.189 P=2.82 MULT=1
MM1021 N_VDD_M1021_d N_A_M1021_g A_952_521# N_VDD_M1000_b PSHORT L=0.15 W=1.26
+ AD=0.2142 AS=0.1638 PD=1.6 PS=1.52 NRD=0 NRS=11.7215 M=1 R=8.4 SA=75004.8
+ SB=75000.7 A=0.189 P=2.82 MULT=1
MM1007 N_S_M1007_d N_A_784_115#_M1007_g N_VDD_M1021_d N_VDD_M1000_b PSHORT
+ L=0.15 W=1.26 AD=0.3339 AS=0.2142 PD=3.05 PS=1.6 NRD=0 NRS=9.3772 M=1 R=8.4
+ SA=75005.3 SB=75000.2 A=0.189 P=2.82 MULT=1
MM1018 N_CO_M1018_d N_CON_M1018_g N_VDD_M1018_s N_VDD_M1000_b PSHORT L=0.15
+ W=0.84 AD=0.2226 AS=0.2226 PD=2.21 PS=2.21 NRD=0 NRS=0 M=1 R=5.6 SA=75000.2
+ SB=75000.2 A=0.126 P=1.98 MULT=1
DX28_noxref N_GND_M1012_b N_VDD_M1000_b NWDIODE A=14.8732 P=18.56
pX29_noxref noxref_20 A A PROBETYPE=1
pX30_noxref noxref_21 B B PROBETYPE=1
pX31_noxref noxref_22 CI CI PROBETYPE=1
pX32_noxref noxref_23 S S PROBETYPE=1
pX33_noxref noxref_24 CON CON PROBETYPE=1
pX34_noxref noxref_25 CO CO PROBETYPE=1
*
.include "sky130_osu_sc_12T_hs__addf_l.pxi.spice"
*
.ends
*
*


* File: sky130_osu_sc_12T_hs__addh_1.spice
* Created: Mon Nov 16 20:37:17 2020
* Program "Calibre xRC"
* Version "v2020.2_35.23"
*
.include "sky130_osu_sc_12T_hs__addh_1.pex.spice"
.subckt sky130_osu_sc_12T_hs__addh_1  GND VDD CON B A S CO
*
* CO	CO
* S	S
* A	A
* B	B
* CON	CON
* VDD	VDD
* GND	GND
MM1007 N_GND_M1007_d N_CON_M1007_g N_S_M1007_s N_GND_M1007_b NSHORT L=0.15
+ W=0.55 AD=0.0935 AS=0.14575 PD=0.89 PS=1.63 NRD=13.08 NRS=0 M=1 R=3.66667
+ SA=75000.2 SB=75001 A=0.0825 P=1.4 MULT=1
MM1008 A_208_115# N_B_M1008_g N_GND_M1007_d N_GND_M1007_b NSHORT L=0.15 W=0.55
+ AD=0.05775 AS=0.0935 PD=0.76 PS=0.89 NRD=10.908 NRS=0 M=1 R=3.66667 SA=75000.7
+ SB=75000.5 A=0.0825 P=1.4 MULT=1
MM1010 N_A_208_521#_M1010_d N_A_M1010_g A_208_115# N_GND_M1007_b NSHORT L=0.15
+ W=0.55 AD=0.14575 AS=0.05775 PD=1.63 PS=0.76 NRD=0 NRS=10.908 M=1 R=3.66667
+ SA=75001 SB=75000.2 A=0.0825 P=1.4 MULT=1
MM1002 N_GND_M1002_d N_A_208_521#_M1002_g N_CO_M1002_s N_GND_M1007_b NSHORT
+ L=0.15 W=0.55 AD=0.0935 AS=0.14575 PD=0.89 PS=1.63 NRD=13.08 NRS=0 M=1
+ R=3.66667 SA=75000.2 SB=75001.5 A=0.0825 P=1.4 MULT=1
MM1011 N_CON_M1011_d N_A_208_521#_M1011_g N_GND_M1002_d N_GND_M1007_b NSHORT
+ L=0.15 W=0.55 AD=0.077 AS=0.0935 PD=0.83 PS=0.89 NRD=0 NRS=0 M=1 R=3.66667
+ SA=75000.7 SB=75001.1 A=0.0825 P=1.4 MULT=1
MM1004 N_CON_M1011_d N_B_M1004_g N_CON_M1011_d N_GND_M1007_b NSHORT L=0.15
+ W=0.55 AD=0.077 AS=0.077 PD=0.83 PS=0.83 NRD=0 NRS=0 M=1 R=3.66667 SA=75001.1
+ SB=75000.6 A=0.0825 P=1.4 MULT=1
MM1005 N_CON_M1011_d N_A_M1005_g N_CON_M1011_d N_GND_M1007_b NSHORT L=0.15
+ W=0.55 AD=0.14575 AS=0.077 PD=1.63 PS=0.83 NRD=0 NRS=0 M=1 R=3.66667
+ SA=75001.5 SB=75000.2 A=0.0825 P=1.4 MULT=1
MM1000 N_VDD_M1000_d N_CON_M1000_g N_S_M1000_s N_VDD_M1000_b PSHORT L=0.15
+ W=1.26 AD=0.2142 AS=0.3339 PD=1.6 PS=3.05 NRD=9.3772 NRS=0 M=1 R=8.4
+ SA=75000.2 SB=75001.6 A=0.189 P=2.82 MULT=1
MM1001 N_A_208_521#_M1001_d N_B_M1001_g N_VDD_M1000_d N_VDD_M1000_b PSHORT
+ L=0.15 W=1.26 AD=0.1764 AS=0.2142 PD=1.54 PS=1.6 NRD=0 NRS=0 M=1 R=8.4
+ SA=75000.7 SB=75001.1 A=0.189 P=2.82 MULT=1
MM1003 N_VDD_M1003_d N_A_M1003_g N_A_208_521#_M1001_d N_VDD_M1000_b PSHORT
+ L=0.15 W=1.26 AD=0.2142 AS=0.1764 PD=1.6 PS=1.54 NRD=0 NRS=0 M=1 R=8.4
+ SA=75001.1 SB=75000.7 A=0.189 P=2.82 MULT=1
MM1012 N_CO_M1012_d N_A_208_521#_M1012_g N_VDD_M1003_d N_VDD_M1000_b PSHORT
+ L=0.15 W=1.26 AD=0.3339 AS=0.2142 PD=3.05 PS=1.6 NRD=0 NRS=9.3772 M=1 R=8.4
+ SA=75001.6 SB=75000.2 A=0.189 P=2.82 MULT=1
MM1013 N_VDD_M1013_d N_A_208_521#_M1013_g N_CON_M1013_s N_VDD_M1000_b PSHORT
+ L=0.15 W=1.26 AD=0.1764 AS=0.3339 PD=1.54 PS=3.05 NRD=0 NRS=0 M=1 R=8.4
+ SA=75000.2 SB=75001 A=0.189 P=2.82 MULT=1
MM1006 A_668_521# N_B_M1006_g N_VDD_M1013_d N_VDD_M1000_b PSHORT L=0.15 W=1.26
+ AD=0.1323 AS=0.1764 PD=1.47 PS=1.54 NRD=7.8012 NRS=0 M=1 R=8.4 SA=75000.6
+ SB=75000.6 A=0.189 P=2.82 MULT=1
MM1009 N_CON_M1009_d N_A_M1009_g A_668_521# N_VDD_M1000_b PSHORT L=0.15 W=1.26
+ AD=0.3528 AS=0.1323 PD=3.08 PS=1.47 NRD=0 NRS=7.8012 M=1 R=8.4 SA=75001
+ SB=75000.2 A=0.189 P=2.82 MULT=1
DX14_noxref N_GND_M1007_b N_VDD_M1000_b NWDIODE A=8.7138 P=12.58
pX15_noxref noxref_11 S S PROBETYPE=1
pX16_noxref noxref_12 CO CO PROBETYPE=1
pX17_noxref noxref_13 B B PROBETYPE=1
pX18_noxref noxref_14 CON CON PROBETYPE=1
pX19_noxref noxref_15 A A PROBETYPE=1
*
.include "sky130_osu_sc_12T_hs__addh_1.pxi.spice"
*
.ends
*
*


* File: sky130_osu_sc_12T_hs__addh_l.spice
* Created: Mon Nov 16 20:37:22 2020
* Program "Calibre xRC"
* Version "v2020.2_35.23"
*
.include "sky130_osu_sc_12T_hs__addh_l.pex.spice"
.subckt sky130_osu_sc_12T_hs__addh_l  GND VDD CON B A S CO
*
* CO	CO
* S	S
* A	A
* B	B
* CON	CON
* VDD	VDD
* GND	GND
MM1007 N_GND_M1007_d N_CON_M1007_g N_S_M1007_s N_GND_M1007_b NLOWVT L=0.15
+ W=0.42 AD=0.0767474 AS=0.1113 PD=0.770722 PS=1.37 NRD=17.136 NRS=0 M=1 R=2.8
+ SA=75000.2 SB=75001 A=0.063 P=1.14 MULT=1
MM1009 A_208_115# N_B_M1009_g N_GND_M1007_d N_GND_M1007_b NLOWVT L=0.15 W=0.55
+ AD=0.05775 AS=0.100503 PD=0.76 PS=1.00928 NRD=10.908 NRS=0 M=1 R=3.66667
+ SA=75000.6 SB=75000.5 A=0.0825 P=1.4 MULT=1
MM1010 N_A_208_521#_M1010_d N_A_M1010_g A_208_115# N_GND_M1007_b NLOWVT L=0.15
+ W=0.55 AD=0.14575 AS=0.05775 PD=1.63 PS=0.76 NRD=0 NRS=10.908 M=1 R=3.66667
+ SA=75000.9 SB=75000.2 A=0.0825 P=1.4 MULT=1
MM1002 N_GND_M1002_d N_A_208_521#_M1002_g N_CO_M1002_s N_GND_M1007_b NLOWVT
+ L=0.15 W=0.42 AD=0.0767474 AS=0.1113 PD=0.770722 PS=1.37 NRD=17.136 NRS=0 M=1
+ R=2.8 SA=75000.2 SB=75001.5 A=0.063 P=1.14 MULT=1
MM1011 N_CON_M1011_d N_A_208_521#_M1011_g N_GND_M1002_d N_GND_M1007_b NLOWVT
+ L=0.15 W=0.55 AD=0.077 AS=0.100503 PD=0.83 PS=1.00928 NRD=0 NRS=0 M=1
+ R=3.66667 SA=75000.6 SB=75001.1 A=0.0825 P=1.4 MULT=1
MM1004 N_CON_M1011_d N_B_M1004_g N_CON_M1011_d N_GND_M1007_b NLOWVT L=0.15
+ W=0.55 AD=0.077 AS=0.077 PD=0.83 PS=0.83 NRD=0 NRS=0 M=1 R=3.66667 SA=75001
+ SB=75000.6 A=0.0825 P=1.4 MULT=1
MM1005 N_CON_M1011_d N_A_M1005_g N_CON_M1011_d N_GND_M1007_b NLOWVT L=0.15
+ W=0.55 AD=0.14575 AS=0.077 PD=1.63 PS=0.83 NRD=0 NRS=0 M=1 R=3.66667
+ SA=75001.4 SB=75000.2 A=0.0825 P=1.4 MULT=1
MM1003 N_VDD_M1003_d N_CON_M1003_g N_S_M1003_s N_VDD_M1003_b PSHORT L=0.15
+ W=0.835 AD=0.158042 AS=0.221275 PD=1.27542 PS=2.2 NRD=14.5386 NRS=0 M=1
+ R=5.56667 SA=75000.2 SB=75001.6 A=0.12525 P=1.97 MULT=1
MM1000 N_A_208_521#_M1000_d N_B_M1000_g N_VDD_M1003_d N_VDD_M1003_b PSHORT
+ L=0.15 W=1.26 AD=0.1764 AS=0.238483 PD=1.54 PS=1.92458 NRD=0 NRS=0 M=1 R=8.4
+ SA=75000.5 SB=75000.9 A=0.189 P=2.82 MULT=1
MM1001 N_VDD_M1001_d N_A_M1001_g N_A_208_521#_M1000_d N_VDD_M1003_b PSHORT
+ L=0.15 W=1.26 AD=0.23814 AS=0.1764 PD=1.92 PS=1.54 NRD=0 NRS=0 M=1 R=8.4
+ SA=75000.9 SB=75000.5 A=0.189 P=2.82 MULT=1
MM1013 N_CO_M1013_d N_A_208_521#_M1013_g N_VDD_M1001_d N_VDD_M1003_b PSHORT
+ L=0.15 W=0.84 AD=0.2226 AS=0.15876 PD=2.21 PS=1.28 NRD=0 NRS=14.0658 M=1 R=5.6
+ SA=75001.6 SB=75000.2 A=0.126 P=1.98 MULT=1
MM1012 N_VDD_M1012_d N_A_208_521#_M1012_g N_CON_M1012_s N_VDD_M1003_b PSHORT
+ L=0.15 W=1.26 AD=0.1764 AS=0.3339 PD=1.54 PS=3.05 NRD=0 NRS=0 M=1 R=8.4
+ SA=75000.2 SB=75001 A=0.189 P=2.82 MULT=1
MM1006 A_668_521# N_B_M1006_g N_VDD_M1012_d N_VDD_M1003_b PSHORT L=0.15 W=1.26
+ AD=0.1323 AS=0.1764 PD=1.47 PS=1.54 NRD=7.8012 NRS=0 M=1 R=8.4 SA=75000.6
+ SB=75000.6 A=0.189 P=2.82 MULT=1
MM1008 N_CON_M1008_d N_A_M1008_g A_668_521# N_VDD_M1003_b PSHORT L=0.15 W=1.26
+ AD=0.3528 AS=0.1323 PD=3.08 PS=1.47 NRD=0 NRS=7.8012 M=1 R=8.4 SA=75001
+ SB=75000.2 A=0.189 P=2.82 MULT=1
DX14_noxref N_GND_M1007_b N_VDD_M1003_b NWDIODE A=8.7138 P=12.58
pX15_noxref noxref_11 S S PROBETYPE=1
pX16_noxref noxref_12 CO CO PROBETYPE=1
pX17_noxref noxref_13 B B PROBETYPE=1
pX18_noxref noxref_14 CON CON PROBETYPE=1
pX19_noxref noxref_15 A A PROBETYPE=1
*
.include "sky130_osu_sc_12T_hs__addh_l.pxi.spice"
*
.ends
*
*


* File: sky130_osu_sc_12T_hs__and2_1.spice
* Created: Mon Nov 16 20:37:28 2020
* Program "Calibre xRC"
* Version "v2020.2_35.23"
*
.include "sky130_osu_sc_12T_hs__and2_1.pex.spice"
.subckt sky130_osu_sc_12T_hs__and2_1  GND VDD A B Y
*
* Y	Y
* B	B
* A	A
* VDD	VDD
* GND	GND
MM1003 A_110_115# N_A_M1003_g N_A_27_115#_M1003_s N_GND_M1003_b NLOWVT L=0.15
+ W=0.55 AD=0.05775 AS=0.14575 PD=0.76 PS=1.63 NRD=10.908 NRS=0 M=1 R=3.66667
+ SA=75000.2 SB=75001.1 A=0.0825 P=1.4 MULT=1
MM1002 N_GND_M1002_d N_B_M1002_g A_110_115# N_GND_M1003_b NLOWVT L=0.15 W=0.55
+ AD=0.09625 AS=0.05775 PD=0.9 PS=0.76 NRD=0 NRS=10.908 M=1 R=3.66667 SA=75000.5
+ SB=75000.7 A=0.0825 P=1.4 MULT=1
MM1001 N_Y_M1001_d N_A_27_115#_M1001_g N_GND_M1002_d N_GND_M1003_b NLOWVT L=0.15
+ W=0.55 AD=0.14575 AS=0.09625 PD=1.63 PS=0.9 NRD=0 NRS=15.264 M=1 R=3.66667
+ SA=75001.1 SB=75000.2 A=0.0825 P=1.4 MULT=1
MM1000 N_A_27_115#_M1000_d N_A_M1000_g N_VDD_M1000_s N_VDD_M1000_b PSHORT L=0.15
+ W=1.26 AD=0.1764 AS=0.3339 PD=1.54 PS=3.05 NRD=0 NRS=0 M=1 R=8.4 SA=75000.2
+ SB=75001.1 A=0.189 P=2.82 MULT=1
MM1004 N_VDD_M1004_d N_B_M1004_g N_A_27_115#_M1000_d N_VDD_M1000_b PSHORT L=0.15
+ W=1.26 AD=0.1764 AS=0.1764 PD=1.54 PS=1.54 NRD=0 NRS=0 M=1 R=8.4 SA=75000.6
+ SB=75000.6 A=0.189 P=2.82 MULT=1
MM1005 N_Y_M1005_d N_A_27_115#_M1005_g N_VDD_M1004_d N_VDD_M1000_b PSHORT L=0.15
+ W=1.26 AD=0.3339 AS=0.1764 PD=3.05 PS=1.54 NRD=0 NRS=0 M=1 R=8.4 SA=75001.1
+ SB=75000.2 A=0.189 P=2.82 MULT=1
DX6_noxref N_GND_M1003_b N_VDD_M1000_b NWDIODE A=3.9449 P=7.95
pX7_noxref noxref_8 A A PROBETYPE=1
pX8_noxref noxref_9 B B PROBETYPE=1
pX9_noxref noxref_10 Y Y PROBETYPE=1
*
.include "sky130_osu_sc_12T_hs__and2_1.pxi.spice"
*
.ends
*
*


* File: sky130_osu_sc_12T_hs__and2_2.spice
* Created: Mon Nov 16 20:37:34 2020
* Program "Calibre xRC"
* Version "v2020.2_35.23"
*
.include "sky130_osu_sc_12T_hs__and2_2.pex.spice"
.subckt sky130_osu_sc_12T_hs__and2_2  GND VDD A B Y
*
* Y	Y
* B	B
* A	A
* VDD	VDD
* GND	GND
MM1004 A_110_115# N_A_M1004_g N_A_27_115#_M1004_s N_GND_M1004_b NLOWVT L=0.15
+ W=0.55 AD=0.05775 AS=0.14575 PD=0.76 PS=1.63 NRD=10.908 NRS=0 M=1 R=3.66667
+ SA=75000.2 SB=75001.5 A=0.0825 P=1.4 MULT=1
MM1002 N_GND_M1002_d N_B_M1002_g A_110_115# N_GND_M1004_b NLOWVT L=0.15 W=0.55
+ AD=0.09625 AS=0.05775 PD=0.9 PS=0.76 NRD=0 NRS=10.908 M=1 R=3.66667 SA=75000.5
+ SB=75001.1 A=0.0825 P=1.4 MULT=1
MM1001 N_Y_M1001_d N_A_27_115#_M1001_g N_GND_M1002_d N_GND_M1004_b NLOWVT L=0.15
+ W=0.55 AD=0.077 AS=0.09625 PD=0.83 PS=0.9 NRD=0 NRS=15.264 M=1 R=3.66667
+ SA=75001.1 SB=75000.6 A=0.0825 P=1.4 MULT=1
MM1007 N_Y_M1001_d N_A_27_115#_M1007_g N_GND_M1007_s N_GND_M1004_b NLOWVT L=0.15
+ W=0.55 AD=0.077 AS=0.14575 PD=0.83 PS=1.63 NRD=0 NRS=0 M=1 R=3.66667
+ SA=75001.5 SB=75000.2 A=0.0825 P=1.4 MULT=1
MM1000 N_A_27_115#_M1000_d N_A_M1000_g N_VDD_M1000_s N_VDD_M1000_b PSHORT L=0.15
+ W=1.26 AD=0.1764 AS=0.3339 PD=1.54 PS=3.05 NRD=0 NRS=0 M=1 R=8.4 SA=75000.2
+ SB=75001.5 A=0.189 P=2.82 MULT=1
MM1005 N_VDD_M1005_d N_B_M1005_g N_A_27_115#_M1000_d N_VDD_M1000_b PSHORT L=0.15
+ W=1.26 AD=0.1764 AS=0.1764 PD=1.54 PS=1.54 NRD=0 NRS=0 M=1 R=8.4 SA=75000.6
+ SB=75001.1 A=0.189 P=2.82 MULT=1
MM1003 N_VDD_M1005_d N_A_27_115#_M1003_g N_Y_M1003_s N_VDD_M1000_b PSHORT L=0.15
+ W=1.26 AD=0.1764 AS=0.1764 PD=1.54 PS=1.54 NRD=0 NRS=0 M=1 R=8.4 SA=75001.1
+ SB=75000.6 A=0.189 P=2.82 MULT=1
MM1006 N_VDD_M1006_d N_A_27_115#_M1006_g N_Y_M1003_s N_VDD_M1000_b PSHORT L=0.15
+ W=1.26 AD=0.3339 AS=0.1764 PD=3.05 PS=1.54 NRD=0 NRS=0 M=1 R=8.4 SA=75001.5
+ SB=75000.2 A=0.189 P=2.82 MULT=1
DX8_noxref N_GND_M1004_b N_VDD_M1000_b NWDIODE A=4.8513 P=8.83
pX9_noxref noxref_8 A A PROBETYPE=1
pX10_noxref noxref_9 B B PROBETYPE=1
pX11_noxref noxref_10 Y Y PROBETYPE=1
*
.include "sky130_osu_sc_12T_hs__and2_2.pxi.spice"
*
.ends
*
*


* File: sky130_osu_sc_12T_hs__and2_4.spice
* Created: Mon Nov 16 20:37:39 2020
* Program "Calibre xRC"
* Version "v2020.2_35.23"
*
.include "sky130_osu_sc_12T_hs__and2_4.pex.spice"
.subckt sky130_osu_sc_12T_hs__and2_4  GND VDD A B Y
*
* Y	Y
* B	B
* A	A
* VDD	VDD
* GND	GND
MM1004 A_110_115# N_A_M1004_g N_A_27_115#_M1004_s N_GND_M1004_b NLOWVT L=0.15
+ W=0.55 AD=0.05775 AS=0.14575 PD=0.76 PS=1.63 NRD=10.908 NRS=0 M=1 R=3.66667
+ SA=75000.2 SB=75002.3 A=0.0825 P=1.4 MULT=1
MM1002 N_GND_M1002_d N_B_M1002_g A_110_115# N_GND_M1004_b NLOWVT L=0.15 W=0.55
+ AD=0.09625 AS=0.05775 PD=0.9 PS=0.76 NRD=0 NRS=10.908 M=1 R=3.66667 SA=75000.5
+ SB=75002 A=0.0825 P=1.4 MULT=1
MM1001 N_Y_M1001_d N_A_27_115#_M1001_g N_GND_M1002_d N_GND_M1004_b NLOWVT L=0.15
+ W=0.55 AD=0.077 AS=0.09625 PD=0.83 PS=0.9 NRD=0 NRS=15.264 M=1 R=3.66667
+ SA=75001.1 SB=75001.5 A=0.0825 P=1.4 MULT=1
MM1009 N_Y_M1001_d N_A_27_115#_M1009_g N_GND_M1009_s N_GND_M1004_b NLOWVT L=0.15
+ W=0.55 AD=0.077 AS=0.077 PD=0.83 PS=0.83 NRD=0 NRS=0 M=1 R=3.66667 SA=75001.5
+ SB=75001.1 A=0.0825 P=1.4 MULT=1
MM1010 N_Y_M1010_d N_A_27_115#_M1010_g N_GND_M1009_s N_GND_M1004_b NLOWVT L=0.15
+ W=0.55 AD=0.077 AS=0.077 PD=0.83 PS=0.83 NRD=0 NRS=0 M=1 R=3.66667 SA=75001.9
+ SB=75000.6 A=0.0825 P=1.4 MULT=1
MM1011 N_Y_M1010_d N_A_27_115#_M1011_g N_GND_M1011_s N_GND_M1004_b NLOWVT L=0.15
+ W=0.55 AD=0.077 AS=0.14575 PD=0.83 PS=1.63 NRD=0 NRS=0 M=1 R=3.66667
+ SA=75002.3 SB=75000.2 A=0.0825 P=1.4 MULT=1
MM1000 N_A_27_115#_M1000_d N_A_M1000_g N_VDD_M1000_s N_VDD_M1000_b PSHORT L=0.15
+ W=1.26 AD=0.1764 AS=0.3339 PD=1.54 PS=3.05 NRD=0 NRS=0 M=1 R=8.4 SA=75000.2
+ SB=75002.3 A=0.189 P=2.82 MULT=1
MM1007 N_VDD_M1007_d N_B_M1007_g N_A_27_115#_M1000_d N_VDD_M1000_b PSHORT L=0.15
+ W=1.26 AD=0.1764 AS=0.1764 PD=1.54 PS=1.54 NRD=0 NRS=0 M=1 R=8.4 SA=75000.6
+ SB=75001.9 A=0.189 P=2.82 MULT=1
MM1003 N_VDD_M1007_d N_A_27_115#_M1003_g N_Y_M1003_s N_VDD_M1000_b PSHORT L=0.15
+ W=1.26 AD=0.1764 AS=0.1764 PD=1.54 PS=1.54 NRD=0 NRS=0 M=1 R=8.4 SA=75001.1
+ SB=75001.5 A=0.189 P=2.82 MULT=1
MM1005 N_VDD_M1005_d N_A_27_115#_M1005_g N_Y_M1003_s N_VDD_M1000_b PSHORT L=0.15
+ W=1.26 AD=0.1764 AS=0.1764 PD=1.54 PS=1.54 NRD=0 NRS=0 M=1 R=8.4 SA=75001.5
+ SB=75001.1 A=0.189 P=2.82 MULT=1
MM1006 N_VDD_M1005_d N_A_27_115#_M1006_g N_Y_M1006_s N_VDD_M1000_b PSHORT L=0.15
+ W=1.26 AD=0.1764 AS=0.1764 PD=1.54 PS=1.54 NRD=0 NRS=0 M=1 R=8.4 SA=75001.9
+ SB=75000.6 A=0.189 P=2.82 MULT=1
MM1008 N_VDD_M1008_d N_A_27_115#_M1008_g N_Y_M1006_s N_VDD_M1000_b PSHORT L=0.15
+ W=1.26 AD=0.3339 AS=0.1764 PD=3.05 PS=1.54 NRD=0 NRS=0 M=1 R=8.4 SA=75002.3
+ SB=75000.2 A=0.189 P=2.82 MULT=1
DX12_noxref N_GND_M1004_b N_VDD_M1000_b NWDIODE A=6.6641 P=10.59
pX13_noxref noxref_8 A A PROBETYPE=1
pX14_noxref noxref_9 B B PROBETYPE=1
pX15_noxref noxref_10 Y Y PROBETYPE=1
*
.include "sky130_osu_sc_12T_hs__and2_4.pxi.spice"
*
.ends
*
*


* File: sky130_osu_sc_12T_hs__and2_6.spice
* Created: Mon Nov 16 20:37:45 2020
* Program "Calibre xRC"
* Version "v2020.2_35.23"
*
.include "sky130_osu_sc_12T_hs__and2_6.pex.spice"
.subckt sky130_osu_sc_12T_hs__and2_6  A B Y GND VDD
*
* Y	Y
* B	B
* A	A
MM1006 A_110_115# N_A_M1006_g N_A_27_115#_M1006_s N_noxref_1_M1006_b NLOWVT
+ L=0.15 W=0.55 AD=0.05775 AS=0.14575 PD=0.76 PS=1.63 NRD=10.908 NRS=0 M=1
+ R=3.66667 SA=75000.2 SB=75003.2 A=0.0825 P=1.4 MULT=1
MM1002 N_noxref_1_M1002_d N_B_M1002_g A_110_115# N_noxref_1_M1006_b NLOWVT
+ L=0.15 W=0.55 AD=0.09625 AS=0.05775 PD=0.9 PS=0.76 NRD=0 NRS=10.908 M=1
+ R=3.66667 SA=75000.5 SB=75002.8 A=0.0825 P=1.4 MULT=1
MM1001 N_Y_M1001_d N_A_27_115#_M1001_g N_noxref_1_M1002_d N_noxref_1_M1006_b
+ NLOWVT L=0.15 W=0.55 AD=0.077 AS=0.09625 PD=0.83 PS=0.9 NRD=0 NRS=15.264 M=1
+ R=3.66667 SA=75001.1 SB=75002.3 A=0.0825 P=1.4 MULT=1
MM1011 N_Y_M1001_d N_A_27_115#_M1011_g N_noxref_1_M1011_s N_noxref_1_M1006_b
+ NLOWVT L=0.15 W=0.55 AD=0.077 AS=0.077 PD=0.83 PS=0.83 NRD=0 NRS=0 M=1
+ R=3.66667 SA=75001.5 SB=75001.9 A=0.0825 P=1.4 MULT=1
MM1012 N_Y_M1012_d N_A_27_115#_M1012_g N_noxref_1_M1011_s N_noxref_1_M1006_b
+ NLOWVT L=0.15 W=0.55 AD=0.077 AS=0.077 PD=0.83 PS=0.83 NRD=0 NRS=0 M=1
+ R=3.66667 SA=75001.9 SB=75001.5 A=0.0825 P=1.4 MULT=1
MM1013 N_Y_M1012_d N_A_27_115#_M1013_g N_noxref_1_M1013_s N_noxref_1_M1006_b
+ NLOWVT L=0.15 W=0.55 AD=0.077 AS=0.077 PD=0.83 PS=0.83 NRD=0 NRS=0 M=1
+ R=3.66667 SA=75002.3 SB=75001.1 A=0.0825 P=1.4 MULT=1
MM1014 N_Y_M1014_d N_A_27_115#_M1014_g N_noxref_1_M1013_s N_noxref_1_M1006_b
+ NLOWVT L=0.15 W=0.55 AD=0.077 AS=0.077 PD=0.83 PS=0.83 NRD=0 NRS=0 M=1
+ R=3.66667 SA=75002.8 SB=75000.6 A=0.0825 P=1.4 MULT=1
MM1015 N_Y_M1014_d N_A_27_115#_M1015_g N_noxref_1_M1015_s N_noxref_1_M1006_b
+ NLOWVT L=0.15 W=0.55 AD=0.077 AS=0.14575 PD=0.83 PS=1.63 NRD=0 NRS=0 M=1
+ R=3.66667 SA=75003.2 SB=75000.2 A=0.0825 P=1.4 MULT=1
MM1000 N_A_27_115#_M1000_d N_A_M1000_g N_noxref_2_M1000_s N_noxref_2_M1000_b
+ PSHORT L=0.15 W=1.26 AD=0.1764 AS=0.3339 PD=1.54 PS=3.05 NRD=0 NRS=0 M=1 R=8.4
+ SA=75000.2 SB=75003.2 A=0.189 P=2.82 MULT=1
MM1009 N_noxref_2_M1009_d N_B_M1009_g N_A_27_115#_M1000_d N_noxref_2_M1000_b
+ PSHORT L=0.15 W=1.26 AD=0.1764 AS=0.1764 PD=1.54 PS=1.54 NRD=0 NRS=0 M=1 R=8.4
+ SA=75000.6 SB=75002.8 A=0.189 P=2.82 MULT=1
MM1003 N_Y_M1003_d N_A_27_115#_M1003_g N_noxref_2_M1009_d N_noxref_2_M1000_b
+ PSHORT L=0.15 W=1.26 AD=0.1764 AS=0.1764 PD=1.54 PS=1.54 NRD=0 NRS=0 M=1 R=8.4
+ SA=75001.1 SB=75002.3 A=0.189 P=2.82 MULT=1
MM1004 N_Y_M1003_d N_A_27_115#_M1004_g N_noxref_2_M1004_s N_noxref_2_M1000_b
+ PSHORT L=0.15 W=1.26 AD=0.1764 AS=0.1764 PD=1.54 PS=1.54 NRD=0 NRS=0 M=1 R=8.4
+ SA=75001.5 SB=75001.9 A=0.189 P=2.82 MULT=1
MM1005 N_Y_M1005_d N_A_27_115#_M1005_g N_noxref_2_M1004_s N_noxref_2_M1000_b
+ PSHORT L=0.15 W=1.26 AD=0.1764 AS=0.1764 PD=1.54 PS=1.54 NRD=0 NRS=0 M=1 R=8.4
+ SA=75001.9 SB=75001.5 A=0.189 P=2.82 MULT=1
MM1007 N_Y_M1005_d N_A_27_115#_M1007_g N_noxref_2_M1007_s N_noxref_2_M1000_b
+ PSHORT L=0.15 W=1.26 AD=0.1764 AS=0.1764 PD=1.54 PS=1.54 NRD=0 NRS=0 M=1 R=8.4
+ SA=75002.3 SB=75001.1 A=0.189 P=2.82 MULT=1
MM1008 N_Y_M1008_d N_A_27_115#_M1008_g N_noxref_2_M1007_s N_noxref_2_M1000_b
+ PSHORT L=0.15 W=1.26 AD=0.1764 AS=0.1764 PD=1.54 PS=1.54 NRD=0 NRS=0 M=1 R=8.4
+ SA=75002.8 SB=75000.6 A=0.189 P=2.82 MULT=1
MM1010 N_Y_M1008_d N_A_27_115#_M1010_g N_noxref_2_M1010_s N_noxref_2_M1000_b
+ PSHORT L=0.15 W=1.26 AD=0.1764 AS=0.3339 PD=1.54 PS=3.05 NRD=0 NRS=0 M=1 R=8.4
+ SA=75003.2 SB=75000.2 A=0.189 P=2.82 MULT=1
DX16_noxref N_noxref_1_M1006_b N_noxref_2_M1000_b NWDIODE A=8.4769 P=12.35
pX17_noxref noxref_10 A A PROBETYPE=1
pX18_noxref noxref_11 B B PROBETYPE=1
pX19_noxref noxref_12 Y Y PROBETYPE=1
*
.include "sky130_osu_sc_12T_hs__and2_6.pxi.spice"
*
.ends
*
*


* File: sky130_osu_sc_12T_hs__and2_8.spice
* Created: Mon Nov 16 20:37:51 2020
* Program "Calibre xRC"
* Version "v2020.2_35.23"
*
.include "sky130_osu_sc_12T_hs__and2_8.pex.spice"
.subckt sky130_osu_sc_12T_hs__and2_8  GND VDD A B Y
*
* Y	Y
* B	B
* A	A
* VDD	VDD
* GND	GND
MM1008 A_110_115# N_A_M1008_g N_A_27_115#_M1008_s N_GND_M1008_b NLOWVT L=0.15
+ W=0.55 AD=0.05775 AS=0.14575 PD=0.76 PS=1.63 NRD=10.908 NRS=0 M=1 R=3.66667
+ SA=75000.2 SB=75004.1 A=0.0825 P=1.4 MULT=1