* NGSPICE file created from opamp_sample_0011.ext - technology: sky130A

.subckt opamp_sample_0011 GND VOUT VDD VN VP CS_BIAS DIFFPAIR_BIAS
X0 VOUT.t42 CS_BIAS.t32 GND.t149 GND.t86 sky130_fd_pr__nfet_01v8 ad=0.55605 pd=3.7 as=0.55605 ps=3.7 w=3.37 l=5.45
X1 VOUT.t41 CS_BIAS.t33 GND.t148 GND.t100 sky130_fd_pr__nfet_01v8 ad=0.55605 pd=3.7 as=0.55605 ps=3.7 w=3.37 l=5.45
X2 DIFFPAIR_BIAS.t1 DIFFPAIR_BIAS.t0 a_n1431_n2782.t1 GND.t2 sky130_fd_pr__nfet_01v8 ad=1.9305 pd=10.68 as=1.9305 ps=10.68 w=4.95 l=2.4
X3 a_n12440_8296.t10 VN.t2 a_n4178_n267.t3 GND.t3 sky130_fd_pr__nfet_01v8 ad=0.65175 pd=4.28 as=0.65175 ps=4.28 w=3.95 l=4.7
X4 VOUT.t40 CS_BIAS.t34 GND.t147 GND.t102 sky130_fd_pr__nfet_01v8 ad=0.55605 pd=3.7 as=0.55605 ps=3.7 w=3.37 l=5.45
X5 GND.t146 CS_BIAS.t35 VOUT.t39 GND.t120 sky130_fd_pr__nfet_01v8 ad=1.3143 pd=7.52 as=0.55605 ps=3.7 w=3.37 l=5.45
X6 a_n12440_8296.t9 VN.t3 a_n4178_n267.t8 GND.t84 sky130_fd_pr__nfet_01v8 ad=0.65175 pd=4.28 as=0.65175 ps=4.28 w=3.95 l=4.7
X7 a_n12440_8296.t8 VN.t4 a_n4178_n267.t10 GND.t4 sky130_fd_pr__nfet_01v8 ad=0.65175 pd=4.28 as=1.5405 ps=8.68 w=3.95 l=4.7
X8 VOUT.t9 a_n12440_8296.t14 VDD.t104 VDD.t98 sky130_fd_pr__pfet_01v8 ad=0.5808 pd=3.85 as=1.3728 ps=7.82 w=3.52 l=4.06
X9 VOUT.t38 CS_BIAS.t36 GND.t144 GND.t92 sky130_fd_pr__nfet_01v8 ad=0.55605 pd=3.7 as=1.3143 ps=7.52 w=3.37 l=5.45
X10 CS_BIAS.t19 CS_BIAS.t18 GND.t145 GND.t92 sky130_fd_pr__nfet_01v8 ad=0.55605 pd=3.7 as=1.3143 ps=7.52 w=3.37 l=5.45
X11 GND.t81 GND.t78 GND.t80 GND.t79 sky130_fd_pr__nfet_01v8 ad=1.9305 pd=10.68 as=0 ps=0 w=4.95 l=2.4
X12 GND.t143 CS_BIAS.t37 VOUT.t37 GND.t88 sky130_fd_pr__nfet_01v8 ad=0.55605 pd=3.7 as=0.55605 ps=3.7 w=3.37 l=5.45
X13 VN.t1 GND.t75 GND.t77 GND.t76 sky130_fd_pr__nfet_01v8 ad=0.39 pd=2.78 as=0.165 ps=1.33 w=1 l=0.5
X14 VDD.t13 a_n6715_8686.t20 a_n6793_8883.t7 VDD.t12 sky130_fd_pr__pfet_01v8 ad=0.87615 pd=5.64 as=0.87615 ps=5.64 w=5.31 l=3.38
X15 a_n6793_8883.t13 a_n6715_8686.t14 a_n6715_8686.t15 VDD.t5 sky130_fd_pr__pfet_01v8 ad=2.0709 pd=11.4 as=0.87615 ps=5.64 w=5.31 l=3.38
X16 GND.t74 GND.t72 GND.t73 GND.t34 sky130_fd_pr__nfet_01v8 ad=1.3143 pd=7.52 as=0 ps=0 w=3.37 l=5.45
X17 VP.t1 GND.t69 GND.t71 GND.t70 sky130_fd_pr__nfet_01v8 ad=0.39 pd=2.78 as=0.165 ps=1.33 w=1 l=0.5
X18 a_n4178_n267.t2 VP.t2 a_n6715_8686.t2 GND.t7 sky130_fd_pr__nfet_01v8 ad=1.5405 pd=8.68 as=0.65175 ps=4.28 w=3.95 l=4.7
X19 a_n3792_7061.t14 a_n6715_8686.t21 a_n12440_8296.t12 VDD.t25 sky130_fd_pr__pfet_01v8 ad=0.87615 pd=5.64 as=0.87615 ps=5.64 w=5.31 l=3.38
X20 VDD.t103 a_n12440_8296.t15 VOUT.t43 VDD.t94 sky130_fd_pr__pfet_01v8 ad=0.5808 pd=3.85 as=0.5808 ps=3.85 w=3.52 l=4.06
X21 VDD.t81 VDD.t79 VDD.t80 VDD.t49 sky130_fd_pr__pfet_01v8 ad=2.0709 pd=11.4 as=0 ps=0 w=5.31 l=3.38
X22 GND.t142 CS_BIAS.t38 VOUT.t36 GND.t98 sky130_fd_pr__nfet_01v8 ad=0.55605 pd=3.7 as=0.55605 ps=3.7 w=3.37 l=5.45
X23 VOUT.t2 a_n12440_8296.t16 VDD.t102 VDD.t96 sky130_fd_pr__pfet_01v8 ad=0.5808 pd=3.85 as=1.3728 ps=7.82 w=3.52 l=4.06
X24 a_n12440_8296.t13 a_n6715_8686.t22 a_n3792_7061.t13 VDD.t1 sky130_fd_pr__pfet_01v8 ad=2.0709 pd=11.4 as=0.87615 ps=5.64 w=5.31 l=3.38
X25 a_n6793_8883.t6 a_n6715_8686.t23 VDD.t18 VDD.t17 sky130_fd_pr__pfet_01v8 ad=2.0709 pd=11.4 as=0.87615 ps=5.64 w=5.31 l=3.38
X26 VDD.t101 a_n12440_8296.t17 VOUT.t0 VDD.t92 sky130_fd_pr__pfet_01v8 ad=0.5808 pd=3.85 as=0.5808 ps=3.85 w=3.52 l=4.06
X27 VOUT.t3 a_n12440_8296.t18 VDD.t100 VDD.t90 sky130_fd_pr__pfet_01v8 ad=1.3728 pd=7.82 as=0.5808 ps=3.85 w=3.52 l=4.06
X28 DIFFPAIR_BIAS.t3 DIFFPAIR_BIAS.t2 a_n1431_n2782.t0 GND.t85 sky130_fd_pr__nfet_01v8 ad=1.9305 pd=10.68 as=1.9305 ps=10.68 w=4.95 l=2.4
X29 VDD.t24 a_n6715_8686.t24 a_n3792_7061.t8 VDD.t23 sky130_fd_pr__pfet_01v8 ad=0.87615 pd=5.64 as=0.87615 ps=5.64 w=5.31 l=3.38
X30 a_n6793_8883.t12 a_n6715_8686.t10 a_n6715_8686.t11 VDD.t1 sky130_fd_pr__pfet_01v8 ad=2.0709 pd=11.4 as=0.87615 ps=5.64 w=5.31 l=3.38
X31 VOUT.t7 a_n12440_8296.t19 VDD.t99 VDD.t98 sky130_fd_pr__pfet_01v8 ad=0.5808 pd=3.85 as=1.3728 ps=7.82 w=3.52 l=4.06
X32 VDD.t78 VDD.t76 VDD.t77 VDD.t35 sky130_fd_pr__pfet_01v8 ad=2.0709 pd=11.4 as=0 ps=0 w=5.31 l=3.38
X33 GND.t141 CS_BIAS.t39 VOUT.t35 GND.t90 sky130_fd_pr__nfet_01v8 ad=1.3143 pd=7.52 as=0.55605 ps=3.7 w=3.37 l=5.45
X34 a_n3792_7061.t7 a_n6715_8686.t25 VDD.t11 VDD.t10 sky130_fd_pr__pfet_01v8 ad=2.0709 pd=11.4 as=0.87615 ps=5.64 w=5.31 l=3.38
X35 a_6921_8883# a_6921_8883# a_6921_8883# VDD.t109 sky130_fd_pr__pfet_01v8 ad=2.0709 pd=11.4 as=4.1418 ps=22.8 w=5.31 l=3.38
X36 VDD.t75 VDD.t73 VDD.t74 VDD.t67 sky130_fd_pr__pfet_01v8 ad=1.3728 pd=7.82 as=0 ps=0 w=3.52 l=4.06
X37 VOUT.t8 a_n12440_8296.t20 VDD.t97 VDD.t96 sky130_fd_pr__pfet_01v8 ad=0.5808 pd=3.85 as=1.3728 ps=7.82 w=3.52 l=4.06
X38 VDD.t95 a_n12440_8296.t21 VOUT.t6 VDD.t94 sky130_fd_pr__pfet_01v8 ad=0.5808 pd=3.85 as=0.5808 ps=3.85 w=3.52 l=4.06
X39 GND.t140 CS_BIAS.t40 VOUT.t34 GND.t108 sky130_fd_pr__nfet_01v8 ad=0.55605 pd=3.7 as=0.55605 ps=3.7 w=3.37 l=5.45
X40 GND.t68 GND.t66 GND.t67 GND.t20 sky130_fd_pr__nfet_01v8 ad=1.3143 pd=7.52 as=0 ps=0 w=3.37 l=5.45
X41 VDD.t93 a_n12440_8296.t22 VOUT.t5 VDD.t92 sky130_fd_pr__pfet_01v8 ad=0.5808 pd=3.85 as=0.5808 ps=3.85 w=3.52 l=4.06
X42 GND.t139 CS_BIAS.t24 CS_BIAS.t25 GND.t108 sky130_fd_pr__nfet_01v8 ad=0.55605 pd=3.7 as=0.55605 ps=3.7 w=3.37 l=5.45
X43 GND.t138 CS_BIAS.t41 VOUT.t33 GND.t110 sky130_fd_pr__nfet_01v8 ad=0.55605 pd=3.7 as=0.55605 ps=3.7 w=3.37 l=5.45
X44 VOUT.t1 a_n12440_8296.t23 VDD.t91 VDD.t90 sky130_fd_pr__pfet_01v8 ad=1.3728 pd=7.82 as=0.5808 ps=3.85 w=3.52 l=4.06
X45 VDD.t7 a_n6715_8686.t26 a_n3792_7061.t6 VDD.t6 sky130_fd_pr__pfet_01v8 ad=0.87615 pd=5.64 as=2.0709 ps=11.4 w=5.31 l=3.38
X46 GND.t65 GND.t63 GND.t64 GND.t9 sky130_fd_pr__nfet_01v8 ad=1.3143 pd=7.52 as=0 ps=0 w=3.37 l=5.45
X47 a_n4178_n267.t0 VP.t3 a_n6715_8686.t0 GND.t1 sky130_fd_pr__nfet_01v8 ad=1.5405 pd=8.68 as=0.65175 ps=4.28 w=3.95 l=4.7
X48 VDD.t72 VDD.t70 VDD.t71 VDD.t53 sky130_fd_pr__pfet_01v8 ad=2.0709 pd=11.4 as=0 ps=0 w=5.31 l=3.38
X49 CS_BIAS.t23 CS_BIAS.t22 GND.t137 GND.t102 sky130_fd_pr__nfet_01v8 ad=0.55605 pd=3.7 as=0.55605 ps=3.7 w=3.37 l=5.45
X50 VOUT.t32 CS_BIAS.t42 GND.t136 GND.t96 sky130_fd_pr__nfet_01v8 ad=0.55605 pd=3.7 as=0.55605 ps=3.7 w=3.37 l=5.45
X51 a_n4178_n267.t1 VP.t4 a_n6715_8686.t1 GND.t6 sky130_fd_pr__nfet_01v8 ad=0.65175 pd=4.28 as=0.65175 ps=4.28 w=3.95 l=4.7
X52 GND.t62 GND.t60 GND.t61 GND.t45 sky130_fd_pr__nfet_01v8 ad=1.3143 pd=7.52 as=0 ps=0 w=3.37 l=5.45
X53 VDD.t69 VDD.t66 VDD.t68 VDD.t67 sky130_fd_pr__pfet_01v8 ad=1.3728 pd=7.82 as=0 ps=0 w=3.52 l=4.06
X54 VOUT.t31 CS_BIAS.t43 GND.t133 GND.t105 sky130_fd_pr__nfet_01v8 ad=0.55605 pd=3.7 as=0.55605 ps=3.7 w=3.37 l=5.45
X55 GND.t135 CS_BIAS.t20 CS_BIAS.t21 GND.t120 sky130_fd_pr__nfet_01v8 ad=1.3143 pd=7.52 as=0.55605 ps=3.7 w=3.37 l=5.45
X56 a_n12440_8296.t11 a_n6715_8686.t27 a_n3792_7061.t12 VDD.t0 sky130_fd_pr__pfet_01v8 ad=0.87615 pd=5.64 as=2.0709 ps=11.4 w=5.31 l=3.38
X57 VOUT.t30 CS_BIAS.t44 GND.t134 GND.t117 sky130_fd_pr__nfet_01v8 ad=0.55605 pd=3.7 as=0.55605 ps=3.7 w=3.37 l=5.45
X58 a_n3792_7061.t5 a_n6715_8686.t28 VDD.t113 VDD.t112 sky130_fd_pr__pfet_01v8 ad=2.0709 pd=11.4 as=0.87615 ps=5.64 w=5.31 l=3.38
X59 VDD.t22 a_n6715_8686.t29 a_n6793_8883.t5 VDD.t21 sky130_fd_pr__pfet_01v8 ad=0.87615 pd=5.64 as=2.0709 ps=11.4 w=5.31 l=3.38
X60 GND.t59 GND.t57 GND.t58 GND.t34 sky130_fd_pr__nfet_01v8 ad=1.3143 pd=7.52 as=0 ps=0 w=3.37 l=5.45
X61 a_n4178_n267.t11 DIFFPAIR_BIAS.t4 a_n689_n2782.t1 GND.t83 sky130_fd_pr__nfet_01v8 ad=1.9305 pd=10.68 as=1.9305 ps=10.68 w=4.95 l=2.4
X62 VDD.t65 VDD.t63 VDD.t64 VDD.t60 sky130_fd_pr__pfet_01v8 ad=1.3728 pd=7.82 as=0 ps=0 w=3.52 l=4.06
X63 GND.t132 CS_BIAS.t8 CS_BIAS.t9 GND.t122 sky130_fd_pr__nfet_01v8 ad=0.55605 pd=3.7 as=0.55605 ps=3.7 w=3.37 l=5.45
X64 GND.t131 CS_BIAS.t45 VOUT.t29 GND.t112 sky130_fd_pr__nfet_01v8 ad=0.55605 pd=3.7 as=0.55605 ps=3.7 w=3.37 l=5.45
X65 a_n6793_8883.t4 a_n6715_8686.t30 VDD.t108 VDD.t107 sky130_fd_pr__pfet_01v8 ad=2.0709 pd=11.4 as=0.87615 ps=5.64 w=5.31 l=3.38
X66 GND.t130 CS_BIAS.t6 CS_BIAS.t7 GND.t90 sky130_fd_pr__nfet_01v8 ad=1.3143 pd=7.52 as=0.55605 ps=3.7 w=3.37 l=5.45
X67 GND.t129 CS_BIAS.t46 VOUT.t28 GND.t122 sky130_fd_pr__nfet_01v8 ad=0.55605 pd=3.7 as=0.55605 ps=3.7 w=3.37 l=5.45
X68 a_n12440_8296.t7 VN.t5 a_n4178_n267.t5 GND.t82 sky130_fd_pr__nfet_01v8 ad=0.65175 pd=4.28 as=1.5405 ps=8.68 w=3.95 l=4.7
X69 CS_BIAS.t5 CS_BIAS.t4 GND.t128 GND.t105 sky130_fd_pr__nfet_01v8 ad=0.55605 pd=3.7 as=0.55605 ps=3.7 w=3.37 l=5.45
X70 CS_BIAS.t3 CS_BIAS.t2 GND.t127 GND.t100 sky130_fd_pr__nfet_01v8 ad=0.55605 pd=3.7 as=0.55605 ps=3.7 w=3.37 l=5.45
X71 a_n4178_n267.t9 VN.t6 a_n12440_8296.t6 GND.t0 sky130_fd_pr__nfet_01v8 ad=0.65175 pd=4.28 as=0.65175 ps=4.28 w=3.95 l=4.7
X72 VOUT.t27 CS_BIAS.t47 GND.t126 GND.t94 sky130_fd_pr__nfet_01v8 ad=0.55605 pd=3.7 as=1.3143 ps=7.52 w=3.37 l=5.45
X73 GND.t56 GND.t54 GND.t55 GND.t24 sky130_fd_pr__nfet_01v8 ad=1.5405 pd=8.68 as=0 ps=0 w=3.95 l=4.7
X74 a_n12440_8296.t2 a_n6715_8686.t31 a_n3792_7061.t11 VDD.t14 sky130_fd_pr__pfet_01v8 ad=0.87615 pd=5.64 as=2.0709 ps=11.4 w=5.31 l=3.38
X75 VDD.t62 VDD.t59 VDD.t61 VDD.t60 sky130_fd_pr__pfet_01v8 ad=1.3728 pd=7.82 as=0 ps=0 w=3.52 l=4.06
X76 GND.t125 CS_BIAS.t0 CS_BIAS.t1 GND.t110 sky130_fd_pr__nfet_01v8 ad=0.55605 pd=3.7 as=0.55605 ps=3.7 w=3.37 l=5.45
X77 a_n6715_8686.t9 a_n6715_8686.t8 a_n6793_8883.t11 VDD.t25 sky130_fd_pr__pfet_01v8 ad=0.87615 pd=5.64 as=0.87615 ps=5.64 w=5.31 l=3.38
X78 GND.t53 GND.t51 GND.t52 GND.t45 sky130_fd_pr__nfet_01v8 ad=1.3143 pd=7.52 as=0 ps=0 w=3.37 l=5.45
X79 a_n6715_8686.t19 VP.t5 a_n4178_n267.t17 GND.t84 sky130_fd_pr__nfet_01v8 ad=0.65175 pd=4.28 as=0.65175 ps=4.28 w=3.95 l=4.7
X80 GND.t50 GND.t48 GND.t49 GND.t16 sky130_fd_pr__nfet_01v8 ad=1.5405 pd=8.68 as=0 ps=0 w=3.95 l=4.7
X81 VOUT.t26 CS_BIAS.t48 GND.t124 GND.t117 sky130_fd_pr__nfet_01v8 ad=0.55605 pd=3.7 as=0.55605 ps=3.7 w=3.37 l=5.45
X82 VDD.t86 a_n6715_8686.t32 a_n3792_7061.t4 VDD.t85 sky130_fd_pr__pfet_01v8 ad=0.87615 pd=5.64 as=0.87615 ps=5.64 w=5.31 l=3.38
X83 GND.t123 CS_BIAS.t49 VOUT.t25 GND.t122 sky130_fd_pr__nfet_01v8 ad=0.55605 pd=3.7 as=0.55605 ps=3.7 w=3.37 l=5.45
X84 GND.t47 GND.t44 GND.t46 GND.t45 sky130_fd_pr__nfet_01v8 ad=1.3143 pd=7.52 as=0 ps=0 w=3.37 l=5.45
X85 GND.t116 CS_BIAS.t50 VOUT.t24 GND.t112 sky130_fd_pr__nfet_01v8 ad=0.55605 pd=3.7 as=0.55605 ps=3.7 w=3.37 l=5.45
X86 GND.t43 GND.t41 VP.t0 GND.t42 sky130_fd_pr__nfet_01v8 ad=0.165 pd=1.33 as=0.39 ps=2.78 w=1 l=0.5
X87 GND.t121 CS_BIAS.t51 VOUT.t23 GND.t120 sky130_fd_pr__nfet_01v8 ad=1.3143 pd=7.52 as=0.55605 ps=3.7 w=3.37 l=5.45
X88 a_n6793_8883.t10 a_n6715_8686.t4 a_n6715_8686.t5 VDD.t14 sky130_fd_pr__pfet_01v8 ad=0.87615 pd=5.64 as=2.0709 ps=11.4 w=5.31 l=3.38
X89 GND.t119 CS_BIAS.t16 CS_BIAS.t17 GND.t98 sky130_fd_pr__nfet_01v8 ad=0.55605 pd=3.7 as=0.55605 ps=3.7 w=3.37 l=5.45
X90 a_n3792_7061.t3 a_n6715_8686.t33 VDD.t3 VDD.t2 sky130_fd_pr__pfet_01v8 ad=0.87615 pd=5.64 as=0.87615 ps=5.64 w=5.31 l=3.38
X91 VDD.t58 VDD.t56 VDD.t57 VDD.t45 sky130_fd_pr__pfet_01v8 ad=2.0709 pd=11.4 as=0 ps=0 w=5.31 l=3.38
X92 a_n3792_7061.t2 a_n6715_8686.t34 VDD.t106 VDD.t105 sky130_fd_pr__pfet_01v8 ad=0.87615 pd=5.64 as=0.87615 ps=5.64 w=5.31 l=3.38
X93 CS_BIAS.t15 CS_BIAS.t14 GND.t118 GND.t117 sky130_fd_pr__nfet_01v8 ad=0.55605 pd=3.7 as=0.55605 ps=3.7 w=3.37 l=5.45
X94 VOUT.t22 CS_BIAS.t52 GND.t115 GND.t94 sky130_fd_pr__nfet_01v8 ad=0.55605 pd=3.7 as=1.3143 ps=7.52 w=3.37 l=5.45
X95 VDD.t83 a_n6715_8686.t35 a_n6793_8883.t3 VDD.t82 sky130_fd_pr__pfet_01v8 ad=0.87615 pd=5.64 as=2.0709 ps=11.4 w=5.31 l=3.38
X96 CS_BIAS.t31 CS_BIAS.t30 GND.t114 GND.t86 sky130_fd_pr__nfet_01v8 ad=0.55605 pd=3.7 as=0.55605 ps=3.7 w=3.37 l=5.45
X97 GND.t113 CS_BIAS.t28 CS_BIAS.t29 GND.t112 sky130_fd_pr__nfet_01v8 ad=0.55605 pd=3.7 as=0.55605 ps=3.7 w=3.37 l=5.45
X98 a_n6715_8686.t7 a_n6715_8686.t6 a_n6793_8883.t9 VDD.t4 sky130_fd_pr__pfet_01v8 ad=0.87615 pd=5.64 as=0.87615 ps=5.64 w=5.31 l=3.38
X99 a_n6715_8686.t17 VP.t6 a_n4178_n267.t15 GND.t3 sky130_fd_pr__nfet_01v8 ad=0.65175 pd=4.28 as=0.65175 ps=4.28 w=3.95 l=4.7
X100 a_n6715_8686.t18 VP.t7 a_n4178_n267.t16 GND.t4 sky130_fd_pr__nfet_01v8 ad=0.65175 pd=4.28 as=1.5405 ps=8.68 w=3.95 l=4.7
X101 a_n6793_8883.t8 a_n6715_8686.t12 a_n6715_8686.t13 VDD.t0 sky130_fd_pr__pfet_01v8 ad=0.87615 pd=5.64 as=2.0709 ps=11.4 w=5.31 l=3.38
X102 VDD.t20 a_n6715_8686.t36 a_n3792_7061.t1 VDD.t19 sky130_fd_pr__pfet_01v8 ad=0.87615 pd=5.64 as=2.0709 ps=11.4 w=5.31 l=3.38
X103 a_n3792_7061.t10 a_n6715_8686.t37 a_n12440_8296.t0 VDD.t4 sky130_fd_pr__pfet_01v8 ad=0.87615 pd=5.64 as=0.87615 ps=5.64 w=5.31 l=3.38
X104 a_n6793_8883.t2 a_n6715_8686.t38 VDD.t16 VDD.t15 sky130_fd_pr__pfet_01v8 ad=0.87615 pd=5.64 as=0.87615 ps=5.64 w=5.31 l=3.38
X105 GND.t111 CS_BIAS.t53 VOUT.t21 GND.t110 sky130_fd_pr__nfet_01v8 ad=0.55605 pd=3.7 as=0.55605 ps=3.7 w=3.37 l=5.45
X106 a_n6793_8883.t1 a_n6715_8686.t39 VDD.t9 VDD.t8 sky130_fd_pr__pfet_01v8 ad=0.87615 pd=5.64 as=0.87615 ps=5.64 w=5.31 l=3.38
X107 VDD.t55 VDD.t52 VDD.t54 VDD.t53 sky130_fd_pr__pfet_01v8 ad=2.0709 pd=11.4 as=0 ps=0 w=5.31 l=3.38
X108 a_n4178_n267.t7 VN.t7 a_n12440_8296.t5 GND.t1 sky130_fd_pr__nfet_01v8 ad=1.5405 pd=8.68 as=0.65175 ps=4.28 w=3.95 l=4.7
X109 VDD.t51 VDD.t48 VDD.t50 VDD.t49 sky130_fd_pr__pfet_01v8 ad=2.0709 pd=11.4 as=0 ps=0 w=5.31 l=3.38
X110 a_n4178_n267.t6 VN.t8 a_n12440_8296.t4 GND.t6 sky130_fd_pr__nfet_01v8 ad=0.65175 pd=4.28 as=0.65175 ps=4.28 w=3.95 l=4.7
X111 a_n4178_n267.t4 VN.t9 a_n12440_8296.t3 GND.t7 sky130_fd_pr__nfet_01v8 ad=1.5405 pd=8.68 as=0.65175 ps=4.28 w=3.95 l=4.7
X112 GND.t109 CS_BIAS.t54 VOUT.t20 GND.t108 sky130_fd_pr__nfet_01v8 ad=0.55605 pd=3.7 as=0.55605 ps=3.7 w=3.37 l=5.45
X113 GND.t107 CS_BIAS.t26 CS_BIAS.t27 GND.t88 sky130_fd_pr__nfet_01v8 ad=0.55605 pd=3.7 as=0.55605 ps=3.7 w=3.37 l=5.45
X114 GND.t40 GND.t37 GND.t39 GND.t38 sky130_fd_pr__nfet_01v8 ad=1.9305 pd=10.68 as=0 ps=0 w=4.95 l=2.4
X115 GND.t36 GND.t33 GND.t35 GND.t34 sky130_fd_pr__nfet_01v8 ad=1.3143 pd=7.52 as=0 ps=0 w=3.37 l=5.45
X116 VOUT.t19 CS_BIAS.t55 GND.t106 GND.t105 sky130_fd_pr__nfet_01v8 ad=0.55605 pd=3.7 as=0.55605 ps=3.7 w=3.37 l=5.45
X117 a_n7753_8883# a_n7753_8883# a_n7753_8883# VDD.t84 sky130_fd_pr__pfet_01v8 ad=2.0709 pd=11.4 as=4.1418 ps=22.8 w=5.31 l=3.38
X118 GND.t32 GND.t30 GND.t31 GND.t20 sky130_fd_pr__nfet_01v8 ad=1.3143 pd=7.52 as=0 ps=0 w=3.37 l=5.45
X119 CS_BIAS.t11 CS_BIAS.t10 GND.t104 GND.t96 sky130_fd_pr__nfet_01v8 ad=0.55605 pd=3.7 as=0.55605 ps=3.7 w=3.37 l=5.45
X120 VOUT.t18 CS_BIAS.t56 GND.t97 GND.t96 sky130_fd_pr__nfet_01v8 ad=0.55605 pd=3.7 as=0.55605 ps=3.7 w=3.37 l=5.45
X121 VOUT.t17 CS_BIAS.t57 GND.t103 GND.t102 sky130_fd_pr__nfet_01v8 ad=0.55605 pd=3.7 as=0.55605 ps=3.7 w=3.37 l=5.45
X122 VOUT.t44 a_n3792_7061.t0 sky130_fd_pr__cap_mim_m3_1 l=18.2 w=9.26
X123 VOUT.t16 CS_BIAS.t58 GND.t101 GND.t100 sky130_fd_pr__nfet_01v8 ad=0.55605 pd=3.7 as=0.55605 ps=3.7 w=3.37 l=5.45
X124 a_n12440_8296.t1 a_n6715_8686.t40 a_n3792_7061.t9 VDD.t5 sky130_fd_pr__pfet_01v8 ad=2.0709 pd=11.4 as=0.87615 ps=5.64 w=5.31 l=3.38
X125 GND.t99 CS_BIAS.t59 VOUT.t15 GND.t98 sky130_fd_pr__nfet_01v8 ad=0.55605 pd=3.7 as=0.55605 ps=3.7 w=3.37 l=5.45
X126 VDD.t47 VDD.t44 VDD.t46 VDD.t45 sky130_fd_pr__pfet_01v8 ad=2.0709 pd=11.4 as=0 ps=0 w=5.31 l=3.38
X127 GND.t29 GND.t27 GND.t28 GND.t9 sky130_fd_pr__nfet_01v8 ad=1.3143 pd=7.52 as=0 ps=0 w=3.37 l=5.45
X128 VDD.t43 VDD.t41 VDD.t42 VDD.t31 sky130_fd_pr__pfet_01v8 ad=1.3728 pd=7.82 as=0 ps=0 w=3.52 l=4.06
X129 VDD.t40 VDD.t38 VDD.t39 VDD.t27 sky130_fd_pr__pfet_01v8 ad=1.3728 pd=7.82 as=0 ps=0 w=3.52 l=4.06
X130 a_n4178_n267.t12 DIFFPAIR_BIAS.t5 a_n689_n2782.t0 GND.t5 sky130_fd_pr__nfet_01v8 ad=1.9305 pd=10.68 as=1.9305 ps=10.68 w=4.95 l=2.4
X131 a_n6715_8686.t3 VP.t8 a_n4178_n267.t13 GND.t82 sky130_fd_pr__nfet_01v8 ad=0.65175 pd=4.28 as=1.5405 ps=8.68 w=3.95 l=4.7
X132 a_n4178_n267.t14 VP.t9 a_n6715_8686.t16 GND.t0 sky130_fd_pr__nfet_01v8 ad=0.65175 pd=4.28 as=0.65175 ps=4.28 w=3.95 l=4.7
X133 CS_BIAS.t13 CS_BIAS.t12 GND.t95 GND.t94 sky130_fd_pr__nfet_01v8 ad=0.55605 pd=3.7 as=1.3143 ps=7.52 w=3.37 l=5.45
X134 VOUT.t14 CS_BIAS.t60 GND.t93 GND.t92 sky130_fd_pr__nfet_01v8 ad=0.55605 pd=3.7 as=1.3143 ps=7.52 w=3.37 l=5.45
X135 GND.t26 GND.t23 GND.t25 GND.t24 sky130_fd_pr__nfet_01v8 ad=1.5405 pd=8.68 as=0 ps=0 w=3.95 l=4.7
X136 VDD.t37 VDD.t34 VDD.t36 VDD.t35 sky130_fd_pr__pfet_01v8 ad=2.0709 pd=11.4 as=0 ps=0 w=5.31 l=3.38
X137 VOUT.t4 a_n12440_8296.t24 VDD.t89 VDD.t87 sky130_fd_pr__pfet_01v8 ad=1.3728 pd=7.82 as=0.5808 ps=3.85 w=3.52 l=4.06
X138 GND.t22 GND.t19 GND.t21 GND.t20 sky130_fd_pr__nfet_01v8 ad=1.3143 pd=7.52 as=0 ps=0 w=3.37 l=5.45
X139 GND.t14 GND.t12 VN.t0 GND.t13 sky130_fd_pr__nfet_01v8 ad=0.165 pd=1.33 as=0.39 ps=2.78 w=1 l=0.5
X140 VDD.t33 VDD.t30 VDD.t32 VDD.t31 sky130_fd_pr__pfet_01v8 ad=1.3728 pd=7.82 as=0 ps=0 w=3.52 l=4.06
X141 GND.t18 GND.t15 GND.t17 GND.t16 sky130_fd_pr__nfet_01v8 ad=1.5405 pd=8.68 as=0 ps=0 w=3.95 l=4.7
X142 VDD.t29 VDD.t26 VDD.t28 VDD.t27 sky130_fd_pr__pfet_01v8 ad=1.3728 pd=7.82 as=0 ps=0 w=3.52 l=4.06
X143 GND.t11 GND.t8 GND.t10 GND.t9 sky130_fd_pr__nfet_01v8 ad=1.3143 pd=7.52 as=0 ps=0 w=3.37 l=5.45
X144 VOUT.t45 a_n3792_7061.t0 sky130_fd_pr__cap_mim_m3_1 l=18.2 w=9.26
X145 VOUT.t10 a_n12440_8296.t25 VDD.t88 VDD.t87 sky130_fd_pr__pfet_01v8 ad=1.3728 pd=7.82 as=0.5808 ps=3.85 w=3.52 l=4.06
X146 GND.t91 CS_BIAS.t61 VOUT.t13 GND.t90 sky130_fd_pr__nfet_01v8 ad=1.3143 pd=7.52 as=0.55605 ps=3.7 w=3.37 l=5.45
X147 GND.t89 CS_BIAS.t62 VOUT.t12 GND.t88 sky130_fd_pr__nfet_01v8 ad=0.55605 pd=3.7 as=0.55605 ps=3.7 w=3.37 l=5.45
X148 VDD.t111 a_n6715_8686.t41 a_n6793_8883.t0 VDD.t110 sky130_fd_pr__pfet_01v8 ad=0.87615 pd=5.64 as=0.87615 ps=5.64 w=5.31 l=3.38
X149 VOUT.t11 CS_BIAS.t63 GND.t87 GND.t86 sky130_fd_pr__nfet_01v8 ad=0.55605 pd=3.7 as=0.55605 ps=3.7 w=3.37 l=5.45
R0 CS_BIAS.n447 CS_BIAS.n446 161.3
R1 CS_BIAS.n445 CS_BIAS.n303 161.3
R2 CS_BIAS.n444 CS_BIAS.n443 161.3
R3 CS_BIAS.n442 CS_BIAS.n304 161.3
R4 CS_BIAS.n441 CS_BIAS.n440 161.3
R5 CS_BIAS.n439 CS_BIAS.n305 161.3
R6 CS_BIAS.n438 CS_BIAS.n437 161.3
R7 CS_BIAS.n436 CS_BIAS.n306 161.3
R8 CS_BIAS.n435 CS_BIAS.n434 161.3
R9 CS_BIAS.n433 CS_BIAS.n307 161.3
R10 CS_BIAS.n432 CS_BIAS.n431 161.3
R11 CS_BIAS.n430 CS_BIAS.n308 161.3
R12 CS_BIAS.n429 CS_BIAS.n428 161.3
R13 CS_BIAS.n427 CS_BIAS.n309 161.3
R14 CS_BIAS.n426 CS_BIAS.n425 161.3
R15 CS_BIAS.n424 CS_BIAS.n311 161.3
R16 CS_BIAS.n423 CS_BIAS.n422 161.3
R17 CS_BIAS.n421 CS_BIAS.n312 161.3
R18 CS_BIAS.n420 CS_BIAS.n419 161.3
R19 CS_BIAS.n418 CS_BIAS.n313 161.3
R20 CS_BIAS.n417 CS_BIAS.n416 161.3
R21 CS_BIAS.n415 CS_BIAS.n314 161.3
R22 CS_BIAS.n414 CS_BIAS.n413 161.3
R23 CS_BIAS.n412 CS_BIAS.n411 161.3
R24 CS_BIAS.n410 CS_BIAS.n316 161.3
R25 CS_BIAS.n409 CS_BIAS.n408 161.3
R26 CS_BIAS.n407 CS_BIAS.n317 161.3
R27 CS_BIAS.n406 CS_BIAS.n405 161.3
R28 CS_BIAS.n404 CS_BIAS.n318 161.3
R29 CS_BIAS.n403 CS_BIAS.n402 161.3
R30 CS_BIAS.n401 CS_BIAS.n319 161.3
R31 CS_BIAS.n400 CS_BIAS.n399 161.3
R32 CS_BIAS.n398 CS_BIAS.n320 161.3
R33 CS_BIAS.n397 CS_BIAS.n396 161.3
R34 CS_BIAS.n395 CS_BIAS.n321 161.3
R35 CS_BIAS.n394 CS_BIAS.n393 161.3
R36 CS_BIAS.n392 CS_BIAS.n322 161.3
R37 CS_BIAS.n391 CS_BIAS.n390 161.3
R38 CS_BIAS.n389 CS_BIAS.n324 161.3
R39 CS_BIAS.n388 CS_BIAS.n387 161.3
R40 CS_BIAS.n386 CS_BIAS.n325 161.3
R41 CS_BIAS.n385 CS_BIAS.n384 161.3
R42 CS_BIAS.n383 CS_BIAS.n326 161.3
R43 CS_BIAS.n382 CS_BIAS.n381 161.3
R44 CS_BIAS.n380 CS_BIAS.n327 161.3
R45 CS_BIAS.n379 CS_BIAS.n378 161.3
R46 CS_BIAS.n377 CS_BIAS.n376 161.3
R47 CS_BIAS.n375 CS_BIAS.n329 161.3
R48 CS_BIAS.n374 CS_BIAS.n373 161.3
R49 CS_BIAS.n372 CS_BIAS.n330 161.3
R50 CS_BIAS.n371 CS_BIAS.n370 161.3
R51 CS_BIAS.n369 CS_BIAS.n331 161.3
R52 CS_BIAS.n368 CS_BIAS.n367 161.3
R53 CS_BIAS.n366 CS_BIAS.n332 161.3
R54 CS_BIAS.n365 CS_BIAS.n364 161.3
R55 CS_BIAS.n363 CS_BIAS.n333 161.3
R56 CS_BIAS.n362 CS_BIAS.n361 161.3
R57 CS_BIAS.n360 CS_BIAS.n334 161.3
R58 CS_BIAS.n359 CS_BIAS.n358 161.3
R59 CS_BIAS.n357 CS_BIAS.n335 161.3
R60 CS_BIAS.n356 CS_BIAS.n355 161.3
R61 CS_BIAS.n354 CS_BIAS.n337 161.3
R62 CS_BIAS.n353 CS_BIAS.n352 161.3
R63 CS_BIAS.n351 CS_BIAS.n338 161.3
R64 CS_BIAS.n350 CS_BIAS.n349 161.3
R65 CS_BIAS.n348 CS_BIAS.n339 161.3
R66 CS_BIAS.n347 CS_BIAS.n346 161.3
R67 CS_BIAS.n345 CS_BIAS.n340 161.3
R68 CS_BIAS.n344 CS_BIAS.n343 161.3
R69 CS_BIAS.n65 CS_BIAS.n64 161.3
R70 CS_BIAS.n66 CS_BIAS.n61 161.3
R71 CS_BIAS.n68 CS_BIAS.n67 161.3
R72 CS_BIAS.n69 CS_BIAS.n60 161.3
R73 CS_BIAS.n71 CS_BIAS.n70 161.3
R74 CS_BIAS.n72 CS_BIAS.n59 161.3
R75 CS_BIAS.n74 CS_BIAS.n73 161.3
R76 CS_BIAS.n75 CS_BIAS.n58 161.3
R77 CS_BIAS.n77 CS_BIAS.n76 161.3
R78 CS_BIAS.n78 CS_BIAS.n56 161.3
R79 CS_BIAS.n80 CS_BIAS.n79 161.3
R80 CS_BIAS.n81 CS_BIAS.n55 161.3
R81 CS_BIAS.n83 CS_BIAS.n82 161.3
R82 CS_BIAS.n84 CS_BIAS.n54 161.3
R83 CS_BIAS.n86 CS_BIAS.n85 161.3
R84 CS_BIAS.n87 CS_BIAS.n53 161.3
R85 CS_BIAS.n89 CS_BIAS.n88 161.3
R86 CS_BIAS.n90 CS_BIAS.n52 161.3
R87 CS_BIAS.n92 CS_BIAS.n91 161.3
R88 CS_BIAS.n93 CS_BIAS.n51 161.3
R89 CS_BIAS.n95 CS_BIAS.n94 161.3
R90 CS_BIAS.n96 CS_BIAS.n50 161.3
R91 CS_BIAS.n98 CS_BIAS.n97 161.3
R92 CS_BIAS.n100 CS_BIAS.n99 161.3
R93 CS_BIAS.n101 CS_BIAS.n48 161.3
R94 CS_BIAS.n103 CS_BIAS.n102 161.3
R95 CS_BIAS.n104 CS_BIAS.n47 161.3
R96 CS_BIAS.n106 CS_BIAS.n105 161.3
R97 CS_BIAS.n107 CS_BIAS.n46 161.3
R98 CS_BIAS.n109 CS_BIAS.n108 161.3
R99 CS_BIAS.n110 CS_BIAS.n45 161.3
R100 CS_BIAS.n112 CS_BIAS.n111 161.3
R101 CS_BIAS.n113 CS_BIAS.n43 161.3
R102 CS_BIAS.n115 CS_BIAS.n114 161.3
R103 CS_BIAS.n116 CS_BIAS.n42 161.3
R104 CS_BIAS.n118 CS_BIAS.n117 161.3
R105 CS_BIAS.n119 CS_BIAS.n41 161.3
R106 CS_BIAS.n121 CS_BIAS.n120 161.3
R107 CS_BIAS.n122 CS_BIAS.n40 161.3
R108 CS_BIAS.n124 CS_BIAS.n123 161.3
R109 CS_BIAS.n125 CS_BIAS.n39 161.3
R110 CS_BIAS.n127 CS_BIAS.n126 161.3
R111 CS_BIAS.n128 CS_BIAS.n38 161.3
R112 CS_BIAS.n130 CS_BIAS.n129 161.3
R113 CS_BIAS.n131 CS_BIAS.n37 161.3
R114 CS_BIAS.n133 CS_BIAS.n132 161.3
R115 CS_BIAS.n135 CS_BIAS.n134 161.3
R116 CS_BIAS.n136 CS_BIAS.n35 161.3
R117 CS_BIAS.n138 CS_BIAS.n137 161.3
R118 CS_BIAS.n139 CS_BIAS.n34 161.3
R119 CS_BIAS.n141 CS_BIAS.n140 161.3
R120 CS_BIAS.n142 CS_BIAS.n33 161.3
R121 CS_BIAS.n144 CS_BIAS.n143 161.3
R122 CS_BIAS.n145 CS_BIAS.n32 161.3
R123 CS_BIAS.n147 CS_BIAS.n146 161.3
R124 CS_BIAS.n148 CS_BIAS.n30 161.3
R125 CS_BIAS.n150 CS_BIAS.n149 161.3
R126 CS_BIAS.n151 CS_BIAS.n29 161.3
R127 CS_BIAS.n153 CS_BIAS.n152 161.3
R128 CS_BIAS.n154 CS_BIAS.n28 161.3
R129 CS_BIAS.n156 CS_BIAS.n155 161.3
R130 CS_BIAS.n157 CS_BIAS.n27 161.3
R131 CS_BIAS.n159 CS_BIAS.n158 161.3
R132 CS_BIAS.n160 CS_BIAS.n26 161.3
R133 CS_BIAS.n162 CS_BIAS.n161 161.3
R134 CS_BIAS.n163 CS_BIAS.n25 161.3
R135 CS_BIAS.n165 CS_BIAS.n164 161.3
R136 CS_BIAS.n166 CS_BIAS.n24 161.3
R137 CS_BIAS.n168 CS_BIAS.n167 161.3
R138 CS_BIAS.n197 CS_BIAS.n196 161.3
R139 CS_BIAS.n198 CS_BIAS.n193 161.3
R140 CS_BIAS.n200 CS_BIAS.n199 161.3
R141 CS_BIAS.n201 CS_BIAS.n192 161.3
R142 CS_BIAS.n203 CS_BIAS.n202 161.3
R143 CS_BIAS.n204 CS_BIAS.n191 161.3
R144 CS_BIAS.n206 CS_BIAS.n205 161.3
R145 CS_BIAS.n207 CS_BIAS.n190 161.3
R146 CS_BIAS.n209 CS_BIAS.n208 161.3
R147 CS_BIAS.n210 CS_BIAS.n188 161.3
R148 CS_BIAS.n212 CS_BIAS.n211 161.3
R149 CS_BIAS.n213 CS_BIAS.n187 161.3
R150 CS_BIAS.n215 CS_BIAS.n214 161.3
R151 CS_BIAS.n216 CS_BIAS.n186 161.3
R152 CS_BIAS.n218 CS_BIAS.n217 161.3
R153 CS_BIAS.n219 CS_BIAS.n185 161.3
R154 CS_BIAS.n221 CS_BIAS.n220 161.3
R155 CS_BIAS.n222 CS_BIAS.n184 161.3
R156 CS_BIAS.n224 CS_BIAS.n223 161.3
R157 CS_BIAS.n225 CS_BIAS.n183 161.3
R158 CS_BIAS.n227 CS_BIAS.n226 161.3
R159 CS_BIAS.n228 CS_BIAS.n182 161.3
R160 CS_BIAS.n230 CS_BIAS.n229 161.3
R161 CS_BIAS.n232 CS_BIAS.n231 161.3
R162 CS_BIAS.n233 CS_BIAS.n180 161.3
R163 CS_BIAS.n235 CS_BIAS.n234 161.3
R164 CS_BIAS.n236 CS_BIAS.n179 161.3
R165 CS_BIAS.n238 CS_BIAS.n237 161.3
R166 CS_BIAS.n239 CS_BIAS.n178 161.3
R167 CS_BIAS.n241 CS_BIAS.n240 161.3
R168 CS_BIAS.n242 CS_BIAS.n22 161.3
R169 CS_BIAS.n244 CS_BIAS.n243 161.3
R170 CS_BIAS.n245 CS_BIAS.n20 161.3
R171 CS_BIAS.n247 CS_BIAS.n246 161.3
R172 CS_BIAS.n248 CS_BIAS.n19 161.3
R173 CS_BIAS.n250 CS_BIAS.n249 161.3
R174 CS_BIAS.n251 CS_BIAS.n18 161.3
R175 CS_BIAS.n253 CS_BIAS.n252 161.3
R176 CS_BIAS.n254 CS_BIAS.n17 161.3
R177 CS_BIAS.n256 CS_BIAS.n255 161.3
R178 CS_BIAS.n257 CS_BIAS.n16 161.3
R179 CS_BIAS.n259 CS_BIAS.n258 161.3
R180 CS_BIAS.n260 CS_BIAS.n15 161.3
R181 CS_BIAS.n262 CS_BIAS.n261 161.3
R182 CS_BIAS.n263 CS_BIAS.n14 161.3
R183 CS_BIAS.n265 CS_BIAS.n264 161.3
R184 CS_BIAS.n267 CS_BIAS.n266 161.3
R185 CS_BIAS.n268 CS_BIAS.n12 161.3
R186 CS_BIAS.n270 CS_BIAS.n269 161.3
R187 CS_BIAS.n271 CS_BIAS.n11 161.3
R188 CS_BIAS.n273 CS_BIAS.n272 161.3
R189 CS_BIAS.n274 CS_BIAS.n10 161.3
R190 CS_BIAS.n276 CS_BIAS.n275 161.3
R191 CS_BIAS.n277 CS_BIAS.n9 161.3
R192 CS_BIAS.n279 CS_BIAS.n278 161.3
R193 CS_BIAS.n280 CS_BIAS.n7 161.3
R194 CS_BIAS.n282 CS_BIAS.n281 161.3
R195 CS_BIAS.n283 CS_BIAS.n6 161.3
R196 CS_BIAS.n285 CS_BIAS.n284 161.3
R197 CS_BIAS.n286 CS_BIAS.n5 161.3
R198 CS_BIAS.n288 CS_BIAS.n287 161.3
R199 CS_BIAS.n289 CS_BIAS.n4 161.3
R200 CS_BIAS.n291 CS_BIAS.n290 161.3
R201 CS_BIAS.n292 CS_BIAS.n3 161.3
R202 CS_BIAS.n294 CS_BIAS.n293 161.3
R203 CS_BIAS.n295 CS_BIAS.n2 161.3
R204 CS_BIAS.n297 CS_BIAS.n296 161.3
R205 CS_BIAS.n298 CS_BIAS.n1 161.3
R206 CS_BIAS.n300 CS_BIAS.n299 161.3
R207 CS_BIAS.n897 CS_BIAS.n896 161.3
R208 CS_BIAS.n895 CS_BIAS.n753 161.3
R209 CS_BIAS.n894 CS_BIAS.n893 161.3
R210 CS_BIAS.n892 CS_BIAS.n754 161.3
R211 CS_BIAS.n891 CS_BIAS.n890 161.3
R212 CS_BIAS.n889 CS_BIAS.n755 161.3
R213 CS_BIAS.n888 CS_BIAS.n887 161.3
R214 CS_BIAS.n886 CS_BIAS.n756 161.3
R215 CS_BIAS.n885 CS_BIAS.n884 161.3
R216 CS_BIAS.n883 CS_BIAS.n757 161.3
R217 CS_BIAS.n882 CS_BIAS.n881 161.3
R218 CS_BIAS.n880 CS_BIAS.n758 161.3
R219 CS_BIAS.n879 CS_BIAS.n878 161.3
R220 CS_BIAS.n876 CS_BIAS.n759 161.3
R221 CS_BIAS.n875 CS_BIAS.n874 161.3
R222 CS_BIAS.n873 CS_BIAS.n760 161.3
R223 CS_BIAS.n872 CS_BIAS.n871 161.3
R224 CS_BIAS.n870 CS_BIAS.n761 161.3
R225 CS_BIAS.n869 CS_BIAS.n868 161.3
R226 CS_BIAS.n867 CS_BIAS.n762 161.3
R227 CS_BIAS.n866 CS_BIAS.n865 161.3
R228 CS_BIAS.n864 CS_BIAS.n763 161.3
R229 CS_BIAS.n863 CS_BIAS.n862 161.3
R230 CS_BIAS.n861 CS_BIAS.n860 161.3
R231 CS_BIAS.n859 CS_BIAS.n765 161.3
R232 CS_BIAS.n858 CS_BIAS.n857 161.3
R233 CS_BIAS.n856 CS_BIAS.n766 161.3
R234 CS_BIAS.n855 CS_BIAS.n854 161.3
R235 CS_BIAS.n853 CS_BIAS.n767 161.3
R236 CS_BIAS.n852 CS_BIAS.n851 161.3
R237 CS_BIAS.n850 CS_BIAS.n768 161.3
R238 CS_BIAS.n849 CS_BIAS.n848 161.3
R239 CS_BIAS.n847 CS_BIAS.n769 161.3
R240 CS_BIAS.n846 CS_BIAS.n845 161.3
R241 CS_BIAS.n844 CS_BIAS.n770 161.3
R242 CS_BIAS.n843 CS_BIAS.n842 161.3
R243 CS_BIAS.n840 CS_BIAS.n771 161.3
R244 CS_BIAS.n839 CS_BIAS.n838 161.3
R245 CS_BIAS.n837 CS_BIAS.n772 161.3
R246 CS_BIAS.n836 CS_BIAS.n835 161.3
R247 CS_BIAS.n834 CS_BIAS.n773 161.3
R248 CS_BIAS.n833 CS_BIAS.n832 161.3
R249 CS_BIAS.n831 CS_BIAS.n774 161.3
R250 CS_BIAS.n830 CS_BIAS.n829 161.3
R251 CS_BIAS.n828 CS_BIAS.n775 161.3
R252 CS_BIAS.n827 CS_BIAS.n826 161.3
R253 CS_BIAS.n825 CS_BIAS.n824 161.3
R254 CS_BIAS.n823 CS_BIAS.n777 161.3
R255 CS_BIAS.n822 CS_BIAS.n821 161.3
R256 CS_BIAS.n820 CS_BIAS.n778 161.3
R257 CS_BIAS.n819 CS_BIAS.n818 161.3
R258 CS_BIAS.n817 CS_BIAS.n779 161.3
R259 CS_BIAS.n816 CS_BIAS.n815 161.3
R260 CS_BIAS.n814 CS_BIAS.n780 161.3
R261 CS_BIAS.n813 CS_BIAS.n812 161.3
R262 CS_BIAS.n811 CS_BIAS.n781 161.3
R263 CS_BIAS.n810 CS_BIAS.n809 161.3
R264 CS_BIAS.n808 CS_BIAS.n782 161.3
R265 CS_BIAS.n807 CS_BIAS.n806 161.3
R266 CS_BIAS.n804 CS_BIAS.n783 161.3
R267 CS_BIAS.n803 CS_BIAS.n802 161.3
R268 CS_BIAS.n801 CS_BIAS.n784 161.3
R269 CS_BIAS.n800 CS_BIAS.n799 161.3
R270 CS_BIAS.n798 CS_BIAS.n785 161.3
R271 CS_BIAS.n797 CS_BIAS.n796 161.3
R272 CS_BIAS.n795 CS_BIAS.n786 161.3
R273 CS_BIAS.n794 CS_BIAS.n793 161.3
R274 CS_BIAS.n792 CS_BIAS.n787 161.3
R275 CS_BIAS.n791 CS_BIAS.n790 161.3
R276 CS_BIAS.n619 CS_BIAS.n618 161.3
R277 CS_BIAS.n617 CS_BIAS.n475 161.3
R278 CS_BIAS.n616 CS_BIAS.n615 161.3
R279 CS_BIAS.n614 CS_BIAS.n476 161.3
R280 CS_BIAS.n613 CS_BIAS.n612 161.3
R281 CS_BIAS.n611 CS_BIAS.n477 161.3
R282 CS_BIAS.n610 CS_BIAS.n609 161.3
R283 CS_BIAS.n608 CS_BIAS.n478 161.3
R284 CS_BIAS.n607 CS_BIAS.n606 161.3
R285 CS_BIAS.n605 CS_BIAS.n479 161.3
R286 CS_BIAS.n604 CS_BIAS.n603 161.3
R287 CS_BIAS.n602 CS_BIAS.n480 161.3
R288 CS_BIAS.n601 CS_BIAS.n600 161.3
R289 CS_BIAS.n598 CS_BIAS.n481 161.3
R290 CS_BIAS.n597 CS_BIAS.n596 161.3
R291 CS_BIAS.n595 CS_BIAS.n482 161.3
R292 CS_BIAS.n594 CS_BIAS.n593 161.3
R293 CS_BIAS.n592 CS_BIAS.n483 161.3
R294 CS_BIAS.n591 CS_BIAS.n590 161.3
R295 CS_BIAS.n589 CS_BIAS.n484 161.3
R296 CS_BIAS.n588 CS_BIAS.n587 161.3
R297 CS_BIAS.n586 CS_BIAS.n485 161.3
R298 CS_BIAS.n585 CS_BIAS.n584 161.3
R299 CS_BIAS.n583 CS_BIAS.n582 161.3
R300 CS_BIAS.n581 CS_BIAS.n487 161.3
R301 CS_BIAS.n580 CS_BIAS.n579 161.3
R302 CS_BIAS.n578 CS_BIAS.n488 161.3
R303 CS_BIAS.n577 CS_BIAS.n576 161.3
R304 CS_BIAS.n575 CS_BIAS.n489 161.3
R305 CS_BIAS.n574 CS_BIAS.n573 161.3
R306 CS_BIAS.n572 CS_BIAS.n490 161.3
R307 CS_BIAS.n571 CS_BIAS.n570 161.3
R308 CS_BIAS.n569 CS_BIAS.n491 161.3
R309 CS_BIAS.n568 CS_BIAS.n567 161.3
R310 CS_BIAS.n566 CS_BIAS.n492 161.3
R311 CS_BIAS.n565 CS_BIAS.n564 161.3
R312 CS_BIAS.n562 CS_BIAS.n493 161.3
R313 CS_BIAS.n561 CS_BIAS.n560 161.3
R314 CS_BIAS.n559 CS_BIAS.n494 161.3
R315 CS_BIAS.n558 CS_BIAS.n557 161.3
R316 CS_BIAS.n556 CS_BIAS.n495 161.3
R317 CS_BIAS.n555 CS_BIAS.n554 161.3
R318 CS_BIAS.n553 CS_BIAS.n496 161.3
R319 CS_BIAS.n552 CS_BIAS.n551 161.3
R320 CS_BIAS.n550 CS_BIAS.n497 161.3
R321 CS_BIAS.n549 CS_BIAS.n548 161.3
R322 CS_BIAS.n547 CS_BIAS.n546 161.3
R323 CS_BIAS.n545 CS_BIAS.n499 161.3
R324 CS_BIAS.n544 CS_BIAS.n543 161.3
R325 CS_BIAS.n542 CS_BIAS.n500 161.3
R326 CS_BIAS.n541 CS_BIAS.n540 161.3
R327 CS_BIAS.n539 CS_BIAS.n501 161.3
R328 CS_BIAS.n538 CS_BIAS.n537 161.3
R329 CS_BIAS.n536 CS_BIAS.n502 161.3
R330 CS_BIAS.n535 CS_BIAS.n534 161.3
R331 CS_BIAS.n533 CS_BIAS.n503 161.3
R332 CS_BIAS.n532 CS_BIAS.n531 161.3
R333 CS_BIAS.n530 CS_BIAS.n504 161.3
R334 CS_BIAS.n529 CS_BIAS.n528 161.3
R335 CS_BIAS.n526 CS_BIAS.n505 161.3