* NGSPICE file created from diff_pair_sample_0834.ext - technology: sky130A

.subckt diff_pair_sample_0834 VTAIL VN VP B VDD2 VDD1
X0 VTAIL.t15 VP.t0 VDD1.t0 w_n5290_n2790# sky130_fd_pr__pfet_01v8 ad=1.50315 pd=9.44 as=1.50315 ps=9.44 w=9.11 l=3.99
X1 VTAIL.t5 VN.t0 VDD2.t7 w_n5290_n2790# sky130_fd_pr__pfet_01v8 ad=3.5529 pd=19 as=1.50315 ps=9.44 w=9.11 l=3.99
X2 VTAIL.t14 VP.t1 VDD1.t3 w_n5290_n2790# sky130_fd_pr__pfet_01v8 ad=1.50315 pd=9.44 as=1.50315 ps=9.44 w=9.11 l=3.99
X3 B.t11 B.t9 B.t10 w_n5290_n2790# sky130_fd_pr__pfet_01v8 ad=3.5529 pd=19 as=0 ps=0 w=9.11 l=3.99
X4 B.t8 B.t6 B.t7 w_n5290_n2790# sky130_fd_pr__pfet_01v8 ad=3.5529 pd=19 as=0 ps=0 w=9.11 l=3.99
X5 VDD2.t6 VN.t1 VTAIL.t2 w_n5290_n2790# sky130_fd_pr__pfet_01v8 ad=1.50315 pd=9.44 as=1.50315 ps=9.44 w=9.11 l=3.99
X6 B.t5 B.t3 B.t4 w_n5290_n2790# sky130_fd_pr__pfet_01v8 ad=3.5529 pd=19 as=0 ps=0 w=9.11 l=3.99
X7 VTAIL.t13 VP.t2 VDD1.t6 w_n5290_n2790# sky130_fd_pr__pfet_01v8 ad=3.5529 pd=19 as=1.50315 ps=9.44 w=9.11 l=3.99
X8 VDD1.t5 VP.t3 VTAIL.t12 w_n5290_n2790# sky130_fd_pr__pfet_01v8 ad=1.50315 pd=9.44 as=3.5529 ps=19 w=9.11 l=3.99
X9 VDD2.t5 VN.t2 VTAIL.t4 w_n5290_n2790# sky130_fd_pr__pfet_01v8 ad=1.50315 pd=9.44 as=3.5529 ps=19 w=9.11 l=3.99
X10 B.t2 B.t0 B.t1 w_n5290_n2790# sky130_fd_pr__pfet_01v8 ad=3.5529 pd=19 as=0 ps=0 w=9.11 l=3.99
X11 VDD2.t4 VN.t3 VTAIL.t6 w_n5290_n2790# sky130_fd_pr__pfet_01v8 ad=1.50315 pd=9.44 as=1.50315 ps=9.44 w=9.11 l=3.99
X12 VDD1.t1 VP.t4 VTAIL.t11 w_n5290_n2790# sky130_fd_pr__pfet_01v8 ad=1.50315 pd=9.44 as=1.50315 ps=9.44 w=9.11 l=3.99
X13 VDD1.t7 VP.t5 VTAIL.t10 w_n5290_n2790# sky130_fd_pr__pfet_01v8 ad=1.50315 pd=9.44 as=1.50315 ps=9.44 w=9.11 l=3.99
X14 VDD2.t3 VN.t4 VTAIL.t7 w_n5290_n2790# sky130_fd_pr__pfet_01v8 ad=1.50315 pd=9.44 as=3.5529 ps=19 w=9.11 l=3.99
X15 VTAIL.t0 VN.t5 VDD2.t2 w_n5290_n2790# sky130_fd_pr__pfet_01v8 ad=1.50315 pd=9.44 as=1.50315 ps=9.44 w=9.11 l=3.99
X16 VTAIL.t9 VP.t6 VDD1.t4 w_n5290_n2790# sky130_fd_pr__pfet_01v8 ad=3.5529 pd=19 as=1.50315 ps=9.44 w=9.11 l=3.99
X17 VTAIL.t3 VN.t6 VDD2.t1 w_n5290_n2790# sky130_fd_pr__pfet_01v8 ad=3.5529 pd=19 as=1.50315 ps=9.44 w=9.11 l=3.99
X18 VDD1.t2 VP.t7 VTAIL.t8 w_n5290_n2790# sky130_fd_pr__pfet_01v8 ad=1.50315 pd=9.44 as=3.5529 ps=19 w=9.11 l=3.99
X19 VTAIL.t1 VN.t7 VDD2.t0 w_n5290_n2790# sky130_fd_pr__pfet_01v8 ad=1.50315 pd=9.44 as=1.50315 ps=9.44 w=9.11 l=3.99
R0 VP.n24 VP.n21 161.3
R1 VP.n26 VP.n25 161.3
R2 VP.n27 VP.n20 161.3
R3 VP.n29 VP.n28 161.3
R4 VP.n30 VP.n19 161.3
R5 VP.n32 VP.n31 161.3
R6 VP.n33 VP.n18 161.3
R7 VP.n35 VP.n34 161.3
R8 VP.n36 VP.n17 161.3
R9 VP.n39 VP.n38 161.3
R10 VP.n40 VP.n16 161.3
R11 VP.n42 VP.n41 161.3
R12 VP.n43 VP.n15 161.3
R13 VP.n45 VP.n44 161.3
R14 VP.n46 VP.n14 161.3
R15 VP.n48 VP.n47 161.3
R16 VP.n49 VP.n13 161.3
R17 VP.n92 VP.n0 161.3
R18 VP.n91 VP.n90 161.3
R19 VP.n89 VP.n1 161.3
R20 VP.n88 VP.n87 161.3
R21 VP.n86 VP.n2 161.3
R22 VP.n85 VP.n84 161.3
R23 VP.n83 VP.n3 161.3
R24 VP.n82 VP.n81 161.3
R25 VP.n79 VP.n4 161.3
R26 VP.n78 VP.n77 161.3
R27 VP.n76 VP.n5 161.3
R28 VP.n75 VP.n74 161.3
R29 VP.n73 VP.n6 161.3
R30 VP.n72 VP.n71 161.3
R31 VP.n70 VP.n7 161.3
R32 VP.n69 VP.n68 161.3
R33 VP.n67 VP.n8 161.3
R34 VP.n65 VP.n64 161.3
R35 VP.n63 VP.n9 161.3
R36 VP.n62 VP.n61 161.3
R37 VP.n60 VP.n10 161.3
R38 VP.n59 VP.n58 161.3
R39 VP.n57 VP.n11 161.3
R40 VP.n56 VP.n55 161.3
R41 VP.n54 VP.n12 161.3
R42 VP.n22 VP.t6 87.0715
R43 VP.n23 VP.n22 67.3497
R44 VP.n53 VP.n52 58.6935
R45 VP.n94 VP.n93 58.6935
R46 VP.n51 VP.n50 58.6935
R47 VP.n60 VP.n59 56.5193
R48 VP.n44 VP.n43 56.5193
R49 VP.n87 VP.n86 56.5193
R50 VP.n52 VP.n51 55.504
R51 VP.n53 VP.t2 55.0258
R52 VP.n66 VP.t4 55.0258
R53 VP.n80 VP.t1 55.0258
R54 VP.n93 VP.t3 55.0258
R55 VP.n50 VP.t7 55.0258
R56 VP.n37 VP.t0 55.0258
R57 VP.n23 VP.t5 55.0258
R58 VP.n73 VP.n72 40.4934
R59 VP.n74 VP.n73 40.4934
R60 VP.n31 VP.n30 40.4934
R61 VP.n30 VP.n29 40.4934
R62 VP.n55 VP.n54 24.4675
R63 VP.n55 VP.n11 24.4675
R64 VP.n59 VP.n11 24.4675
R65 VP.n61 VP.n60 24.4675
R66 VP.n61 VP.n9 24.4675
R67 VP.n65 VP.n9 24.4675
R68 VP.n68 VP.n67 24.4675
R69 VP.n68 VP.n7 24.4675
R70 VP.n72 VP.n7 24.4675
R71 VP.n74 VP.n5 24.4675
R72 VP.n78 VP.n5 24.4675
R73 VP.n79 VP.n78 24.4675
R74 VP.n81 VP.n3 24.4675
R75 VP.n85 VP.n3 24.4675
R76 VP.n86 VP.n85 24.4675
R77 VP.n87 VP.n1 24.4675
R78 VP.n91 VP.n1 24.4675
R79 VP.n92 VP.n91 24.4675
R80 VP.n44 VP.n14 24.4675
R81 VP.n48 VP.n14 24.4675
R82 VP.n49 VP.n48 24.4675
R83 VP.n31 VP.n18 24.4675
R84 VP.n35 VP.n18 24.4675
R85 VP.n36 VP.n35 24.4675
R86 VP.n38 VP.n16 24.4675
R87 VP.n42 VP.n16 24.4675
R88 VP.n43 VP.n42 24.4675
R89 VP.n25 VP.n24 24.4675
R90 VP.n25 VP.n20 24.4675
R91 VP.n29 VP.n20 24.4675
R92 VP.n54 VP.n53 23.4888
R93 VP.n93 VP.n92 23.4888
R94 VP.n50 VP.n49 23.4888
R95 VP.n66 VP.n65 16.6381
R96 VP.n81 VP.n80 16.6381
R97 VP.n38 VP.n37 16.6381
R98 VP.n67 VP.n66 7.82994
R99 VP.n80 VP.n79 7.82994
R100 VP.n37 VP.n36 7.82994
R101 VP.n24 VP.n23 7.82994
R102 VP.n22 VP.n21 2.57369
R103 VP.n51 VP.n13 0.417535
R104 VP.n52 VP.n12 0.417535
R105 VP.n94 VP.n0 0.417535
R106 VP VP.n94 0.394291
R107 VP.n26 VP.n21 0.189894
R108 VP.n27 VP.n26 0.189894
R109 VP.n28 VP.n27 0.189894
R110 VP.n28 VP.n19 0.189894
R111 VP.n32 VP.n19 0.189894
R112 VP.n33 VP.n32 0.189894
R113 VP.n34 VP.n33 0.189894
R114 VP.n34 VP.n17 0.189894
R115 VP.n39 VP.n17 0.189894
R116 VP.n40 VP.n39 0.189894
R117 VP.n41 VP.n40 0.189894
R118 VP.n41 VP.n15 0.189894
R119 VP.n45 VP.n15 0.189894
R120 VP.n46 VP.n45 0.189894
R121 VP.n47 VP.n46 0.189894
R122 VP.n47 VP.n13 0.189894
R123 VP.n56 VP.n12 0.189894
R124 VP.n57 VP.n56 0.189894
R125 VP.n58 VP.n57 0.189894
R126 VP.n58 VP.n10 0.189894
R127 VP.n62 VP.n10 0.189894
R128 VP.n63 VP.n62 0.189894
R129 VP.n64 VP.n63 0.189894
R130 VP.n64 VP.n8 0.189894
R131 VP.n69 VP.n8 0.189894
R132 VP.n70 VP.n69 0.189894
R133 VP.n71 VP.n70 0.189894
R134 VP.n71 VP.n6 0.189894
R135 VP.n75 VP.n6 0.189894
R136 VP.n76 VP.n75 0.189894
R137 VP.n77 VP.n76 0.189894
R138 VP.n77 VP.n4 0.189894
R139 VP.n82 VP.n4 0.189894
R140 VP.n83 VP.n82 0.189894
R141 VP.n84 VP.n83 0.189894
R142 VP.n84 VP.n2 0.189894
R143 VP.n88 VP.n2 0.189894
R144 VP.n89 VP.n88 0.189894
R145 VP.n90 VP.n89 0.189894
R146 VP.n90 VP.n0 0.189894
R147 VDD1 VDD1.n0 85.7864
R148 VDD1.n3 VDD1.n2 85.6726
R149 VDD1.n3 VDD1.n1 85.6726
R150 VDD1.n5 VDD1.n4 83.866
R151 VDD1.n5 VDD1.n3 48.9104
R152 VDD1.n4 VDD1.t0 3.56856
R153 VDD1.n4 VDD1.t2 3.56856
R154 VDD1.n0 VDD1.t4 3.56856
R155 VDD1.n0 VDD1.t7 3.56856
R156 VDD1.n2 VDD1.t3 3.56856
R157 VDD1.n2 VDD1.t5 3.56856
R158 VDD1.n1 VDD1.t6 3.56856
R159 VDD1.n1 VDD1.t1 3.56856
R160 VDD1 VDD1.n5 1.80438
R161 VTAIL.n11 VTAIL.t9 70.7554
R162 VTAIL.n10 VTAIL.t4 70.7554
R163 VTAIL.n7 VTAIL.t5 70.7554
R164 VTAIL.n15 VTAIL.t7 70.7551
R165 VTAIL.n2 VTAIL.t3 70.7551
R166 VTAIL.n3 VTAIL.t12 70.7551
R167 VTAIL.n6 VTAIL.t13 70.7551
R168 VTAIL.n14 VTAIL.t8 70.7551
R169 VTAIL.n13 VTAIL.n12 67.1874
R170 VTAIL.n9 VTAIL.n8 67.1874
R171 VTAIL.n1 VTAIL.n0 67.1871
R172 VTAIL.n5 VTAIL.n4 67.1871
R173 VTAIL.n15 VTAIL.n14 23.9445
R174 VTAIL.n7 VTAIL.n6 23.9445
R175 VTAIL.n9 VTAIL.n7 3.72464
R176 VTAIL.n10 VTAIL.n9 3.72464
R177 VTAIL.n13 VTAIL.n11 3.72464
R178 VTAIL.n14 VTAIL.n13 3.72464
R179 VTAIL.n6 VTAIL.n5 3.72464
R180 VTAIL.n5 VTAIL.n3 3.72464
R181 VTAIL.n2 VTAIL.n1 3.72464
R182 VTAIL VTAIL.n15 3.66645
R183 VTAIL.n0 VTAIL.t6 3.56856
R184 VTAIL.n0 VTAIL.t1 3.56856
R185 VTAIL.n4 VTAIL.t11 3.56856
R186 VTAIL.n4 VTAIL.t14 3.56856
R187 VTAIL.n12 VTAIL.t10 3.56856
R188 VTAIL.n12 VTAIL.t15 3.56856
R189 VTAIL.n8 VTAIL.t2 3.56856
R190 VTAIL.n8 VTAIL.t0 3.56856
R191 VTAIL.n11 VTAIL.n10 0.470328
R192 VTAIL.n3 VTAIL.n2 0.470328
R193 VTAIL VTAIL.n1 0.0586897
R194 VN.n75 VN.n39 161.3
R195 VN.n74 VN.n73 161.3
R196 VN.n72 VN.n40 161.3
R197 VN.n71 VN.n70 161.3
R198 VN.n69 VN.n41 161.3
R199 VN.n68 VN.n67 161.3
R200 VN.n66 VN.n42 161.3
R201 VN.n65 VN.n64 161.3
R202 VN.n62 VN.n43 161.3
R203 VN.n61 VN.n60 161.3
R204 VN.n59 VN.n44 161.3
R205 VN.n58 VN.n57 161.3
R206 VN.n56 VN.n45 161.3
R207 VN.n55 VN.n54 161.3
R208 VN.n53 VN.n46 161.3
R209 VN.n52 VN.n51 161.3
R210 VN.n50 VN.n47 161.3
R211 VN.n36 VN.n0 161.3
R212 VN.n35 VN.n34 161.3
R213 VN.n33 VN.n1 161.3
R214 VN.n32 VN.n31 161.3
R215 VN.n30 VN.n2 161.3
R216 VN.n29 VN.n28 161.3
R217 VN.n27 VN.n3 161.3
R218 VN.n26 VN.n25 161.3
R219 VN.n23 VN.n4 161.3
R220 VN.n22 VN.n21 161.3
R221 VN.n20 VN.n5 161.3
R222 VN.n19 VN.n18 161.3
R223 VN.n17 VN.n6 161.3
R224 VN.n16 VN.n15 161.3
R225 VN.n14 VN.n7 161.3
R226 VN.n13 VN.n12 161.3
R227 VN.n11 VN.n8 161.3
R228 VN.n9 VN.t6 87.072
R229 VN.n48 VN.t2 87.072
R230 VN.n10 VN.n9 67.3496
R231 VN.n49 VN.n48 67.3496
R232 VN.n38 VN.n37 58.6935
R233 VN.n77 VN.n76 58.6935
R234 VN.n31 VN.n30 56.5193
R235 VN.n70 VN.n69 56.5193
R236 VN VN.n77 55.542
R237 VN.n10 VN.t3 55.0258
R238 VN.n24 VN.t7 55.0258
R239 VN.n37 VN.t4 55.0258
R240 VN.n49 VN.t5 55.0258
R241 VN.n63 VN.t1 55.0258
R242 VN.n76 VN.t0 55.0258
R243 VN.n17 VN.n16 40.4934
R244 VN.n18 VN.n17 40.4934
R245 VN.n56 VN.n55 40.4934
R246 VN.n57 VN.n56 40.4934
R247 VN.n12 VN.n11 24.4675
R248 VN.n12 VN.n7 24.4675
R249 VN.n16 VN.n7 24.4675
R250 VN.n18 VN.n5 24.4675
R251 VN.n22 VN.n5 24.4675
R252 VN.n23 VN.n22 24.4675
R253 VN.n25 VN.n3 24.4675
R254 VN.n29 VN.n3 24.4675
R255 VN.n30 VN.n29 24.4675
R256 VN.n31 VN.n1 24.4675
R257 VN.n35 VN.n1 24.4675
R258 VN.n36 VN.n35 24.4675
R259 VN.n55 VN.n46 24.4675
R260 VN.n51 VN.n46 24.4675
R261 VN.n51 VN.n50 24.4675
R262 VN.n69 VN.n68 24.4675
R263 VN.n68 VN.n42 24.4675
R264 VN.n64 VN.n42 24.4675
R265 VN.n62 VN.n61 24.4675
R266 VN.n61 VN.n44 24.4675
R267 VN.n57 VN.n44 24.4675
R268 VN.n75 VN.n74 24.4675
R269 VN.n74 VN.n40 24.4675
R270 VN.n70 VN.n40 24.4675
R271 VN.n37 VN.n36 23.4888
R272 VN.n76 VN.n75 23.4888
R273 VN.n25 VN.n24 16.6381
R274 VN.n64 VN.n63 16.6381
R275 VN.n11 VN.n10 7.82994
R276 VN.n24 VN.n23 7.82994
R277 VN.n50 VN.n49 7.82994
R278 VN.n63 VN.n62 7.82994
R279 VN.n48 VN.n47 2.57372
R280 VN.n9 VN.n8 2.57372
R281 VN.n77 VN.n39 0.417535
R282 VN.n38 VN.n0 0.417535
R283 VN VN.n38 0.394291
R284 VN.n73 VN.n39 0.189894
R285 VN.n73 VN.n72 0.189894
R286 VN.n72 VN.n71 0.189894
R287 VN.n71 VN.n41 0.189894
R288 VN.n67 VN.n41 0.189894
R289 VN.n67 VN.n66 0.189894
R290 VN.n66 VN.n65 0.189894
R291 VN.n65 VN.n43 0.189894
R292 VN.n60 VN.n43 0.189894
R293 VN.n60 VN.n59 0.189894
R294 VN.n59 VN.n58 0.189894
R295 VN.n58 VN.n45 0.189894
R296 VN.n54 VN.n45 0.189894
R297 VN.n54 VN.n53 0.189894
R298 VN.n53 VN.n52 0.189894
R299 VN.n52 VN.n47 0.189894
R300 VN.n13 VN.n8 0.189894
R301 VN.n14 VN.n13 0.189894
R302 VN.n15 VN.n14 0.189894
R303 VN.n15 VN.n6 0.189894
R304 VN.n19 VN.n6 0.189894
R305 VN.n20 VN.n19 0.189894
R306 VN.n21 VN.n20 0.189894
R307 VN.n21 VN.n4 0.189894
R308 VN.n26 VN.n4 0.189894
R309 VN.n27 VN.n26 0.189894
R310 VN.n28 VN.n27 0.189894
R311 VN.n28 VN.n2 0.189894
R312 VN.n32 VN.n2 0.189894
R313 VN.n33 VN.n32 0.189894
R314 VN.n34 VN.n33 0.189894
R315 VN.n34 VN.n0 0.189894
R316 VDD2.n2 VDD2.n1 85.6726
R317 VDD2.n2 VDD2.n0 85.6726
R318 VDD2 VDD2.n5 85.6698
R319 VDD2.n4 VDD2.n3 83.8661
R320 VDD2.n4 VDD2.n2 48.3274
R321 VDD2.n5 VDD2.t2 3.56856
R322 VDD2.n5 VDD2.t5 3.56856
R323 VDD2.n3 VDD2.t7 3.56856
R324 VDD2.n3 VDD2.t6 3.56856
R325 VDD2.n1 VDD2.t0 3.56856
R326 VDD2.n1 VDD2.t3 3.56856
R327 VDD2.n0 VDD2.t1 3.56856
R328 VDD2.n0 VDD2.t4 3.56856
R329 VDD2 VDD2.n4 1.92076
R330 B.n449 B.n152 585
R331 B.n448 B.n447 585
R332 B.n446 B.n153 585
R333 B.n445 B.n444 585
R334 B.n443 B.n154 585
R335 B.n442 B.n441 585
R336 B.n440 B.n155 585
R337 B.n439 B.n438 585
R338 B.n437 B.n156 585
R339 B.n436 B.n435 585
R340 B.n434 B.n157 585
R341 B.n433 B.n432 585
R342 B.n431 B.n158 585
R343 B.n430 B.n429 585
R344 B.n428 B.n159 585
R345 B.n427 B.n426 585
R346 B.n425 B.n160 585
R347 B.n424 B.n423 585
R348 B.n422 B.n161 585
R349 B.n421 B.n420 585
R350 B.n419 B.n162 585
R351 B.n418 B.n417 585
R352 B.n416 B.n163 585
R353 B.n415 B.n414 585
R354 B.n413 B.n164 585
R355 B.n412 B.n411 585
R356 B.n410 B.n165 585
R357 B.n409 B.n408 585
R358 B.n407 B.n166 585
R359 B.n406 B.n405 585
R360 B.n404 B.n167 585
R361 B.n403 B.n402 585
R362 B.n401 B.n168 585
R363 B.n400 B.n399 585
R364 B.n395 B.n169 585
R365 B.n394 B.n393 585
R366 B.n392 B.n170 585
R367 B.n391 B.n390 585
R368 B.n389 B.n171 585
R369 B.n388 B.n387 585
R370 B.n386 B.n172 585
R371 B.n385 B.n384 585
R372 B.n383 B.n173 585
R373 B.n381 B.n380 585
R374 B.n379 B.n176 585
R375 B.n378 B.n377 585
R376 B.n376 B.n177 585
R377 B.n375 B.n374 585
R378 B.n373 B.n178 585
R379 B.n372 B.n371 585
R380 B.n370 B.n179 585
R381 B.n369 B.n368 585
R382 B.n367 B.n180 585
R383 B.n366 B.n365 585
R384 B.n364 B.n181 585
R385 B.n363 B.n362 585
R386 B.n361 B.n182 585
R387 B.n360 B.n359 585
R388 B.n358 B.n183 585
R389 B.n357 B.n356 585
R390 B.n355 B.n184 585
R391 B.n354 B.n353 585
R392 B.n352 B.n185 585
R393 B.n351 B.n350 585
R394 B.n349 B.n186 585
R395 B.n348 B.n347 585
R396 B.n346 B.n187 585
R397 B.n345 B.n344 585
R398 B.n343 B.n188 585
R399 B.n342 B.n341 585
R400 B.n340 B.n189 585
R401 B.n339 B.n338 585
R402 B.n337 B.n190 585
R403 B.n336 B.n335 585
R404 B.n334 B.n191 585
R405 B.n333 B.n332 585
R406 B.n451 B.n450 585
R407 B.n452 B.n151 585
R408 B.n454 B.n453 585
R409 B.n455 B.n150 585
R410 B.n457 B.n456 585
R411 B.n458 B.n149 585
R412 B.n460 B.n459 585
R413 B.n461 B.n148 585
R414 B.n463 B.n462 585
R415 B.n464 B.n147 585
R416 B.n466 B.n465 585
R417 B.n467 B.n146 585
R418 B.n469 B.n468 585
R419 B.n470 B.n145 585
R420 B.n472 B.n471 585
R421 B.n473 B.n144 585
R422 B.n475 B.n474 585
R423 B.n476 B.n143 585
R424 B.n478 B.n477 585
R425 B.n479 B.n142 585
R426 B.n481 B.n480 585
R427 B.n482 B.n141 585
R428 B.n484 B.n483 585
R429 B.n485 B.n140 585
R430 B.n487 B.n486 585
R431 B.n488 B.n139 585
R432 B.n490 B.n489 585
R433 B.n491 B.n138 585
R434 B.n493 B.n492 585
R435 B.n494 B.n137 585
R436 B.n496 B.n495 585
R437 B.n497 B.n136 585
R438 B.n499 B.n498 585
R439 B.n500 B.n135 585
R440 B.n502 B.n501 585
R441 B.n503 B.n134 585
R442 B.n505 B.n504 585
R443 B.n506 B.n133 585
R444 B.n508 B.n507 585
R445 B.n509 B.n132 585
R446 B.n511 B.n510 585
R447 B.n512 B.n131 585
R448 B.n514 B.n513 585
R449 B.n515 B.n130 585
R450 B.n517 B.n516 585
R451 B.n518 B.n129 585
R452 B.n520 B.n519 585
R453 B.n521 B.n128 585
R454 B.n523 B.n522 585
R455 B.n524 B.n127 585
R456 B.n526 B.n525 585
R457 B.n527 B.n126 585
R458 B.n529 B.n528 585
R459 B.n530 B.n125 585
R460 B.n532 B.n531 585
R461 B.n533 B.n124 585
R462 B.n535 B.n534 585
R463 B.n536 B.n123 585
R464 B.n538 B.n537 585
R465 B.n539 B.n122 585
R466 B.n541 B.n540 585
R467 B.n542 B.n121 585
R468 B.n544 B.n543 585
R469 B.n545 B.n120 585
R470 B.n547 B.n546 585
R471 B.n548 B.n119 585
R472 B.n550 B.n549 585
R473 B.n551 B.n118 585
R474 B.n553 B.n552 585
R475 B.n554 B.n117 585
R476 B.n556 B.n555 585
R477 B.n557 B.n116 585
R478 B.n559 B.n558 585
R479 B.n560 B.n115 585
R480 B.n562 B.n561 585
R481 B.n563 B.n114 585
R482 B.n565 B.n564 585
R483 B.n566 B.n113 585
R484 B.n568 B.n567 585
R485 B.n569 B.n112 585
R486 B.n571 B.n570 585
R487 B.n572 B.n111 585
R488 B.n574 B.n573 585
R489 B.n575 B.n110 585
R490 B.n577 B.n576 585
R491 B.n578 B.n109 585
R492 B.n580 B.n579 585
R493 B.n581 B.n108 585
R494 B.n583 B.n582 585
R495 B.n584 B.n107 585
R496 B.n586 B.n585 585
R497 B.n587 B.n106 585
R498 B.n589 B.n588 585
R499 B.n590 B.n105 585
R500 B.n592 B.n591 585
R501 B.n593 B.n104 585
R502 B.n595 B.n594 585
R503 B.n596 B.n103 585
R504 B.n598 B.n597 585
R505 B.n599 B.n102 585
R506 B.n601 B.n600 585
R507 B.n602 B.n101 585
R508 B.n604 B.n603 585
R509 B.n605 B.n100 585
R510 B.n607 B.n606 585
R511 B.n608 B.n99 585
R512 B.n610 B.n609 585
R513 B.n611 B.n98 585
R514 B.n613 B.n612 585
R515 B.n614 B.n97 585
R516 B.n616 B.n615 585
R517 B.n617 B.n96 585
R518 B.n619 B.n618 585
R519 B.n620 B.n95 585
R520 B.n622 B.n621 585
R521 B.n623 B.n94 585
R522 B.n625 B.n624 585
R523 B.n626 B.n93 585
R524 B.n628 B.n627 585
R525 B.n629 B.n92 585
R526 B.n631 B.n630 585
R527 B.n632 B.n91 585
R528 B.n634 B.n633 585
R529 B.n635 B.n90 585
R530 B.n637 B.n636 585
R531 B.n638 B.n89 585
R532 B.n640 B.n639 585
R533 B.n641 B.n88 585
R534 B.n643 B.n642 585
R535 B.n644 B.n87 585
R536 B.n646 B.n645 585
R537 B.n647 B.n86 585
R538 B.n649 B.n648 585
R539 B.n650 B.n85 585
R540 B.n652 B.n651 585
R541 B.n653 B.n84 585
R542 B.n655 B.n654 585
R543 B.n656 B.n83 585
R544 B.n658 B.n657 585
R545 B.n659 B.n82 585
R546 B.n661 B.n660 585
R547 B.n662 B.n81 585
R548 B.n664 B.n663 585
R549 B.n665 B.n80 585
R550 B.n781 B.n780 585
R551 B.n779 B.n38 585
R552 B.n778 B.n777 585
R553 B.n776 B.n39 585
R554 B.n775 B.n774 585
R555 B.n773 B.n40 585
R556 B.n772 B.n771 585
R557 B.n770 B.n41 585
R558 B.n769 B.n768 585
R559 B.n767 B.n42 585
R560 B.n766 B.n765 585
R561 B.n764 B.n43 585
R562 B.n763 B.n762 585
R563 B.n761 B.n44 585
R564 B.n760 B.n759 585
R565 B.n758 B.n45 585
R566 B.n757 B.n756 585
R567 B.n755 B.n46 585
R568 B.n754 B.n753 585
R569 B.n752 B.n47 585
R570 B.n751 B.n750 585
R571 B.n749 B.n48 585
R572 B.n748 B.n747 585
R573 B.n746 B.n49 585
R574 B.n745 B.n744 585
R575 B.n743 B.n50 585
R576 B.n742 B.n741 585
R577 B.n740 B.n51 585
R578 B.n739 B.n738 585
R579 B.n737 B.n52 585
R580 B.n736 B.n735 585
R581 B.n734 B.n53 585
R582 B.n733 B.n732 585
R583 B.n731 B.n730 585
R584 B.n729 B.n57 585
R585 B.n728 B.n727 585
R586 B.n726 B.n58 585
R587 B.n725 B.n724 585
R588 B.n723 B.n59 585
R589 B.n722 B.n721 585
R590 B.n720 B.n60 585
R591 B.n719 B.n718 585
R592 B.n717 B.n61 585
R593 B.n715 B.n714 585
R594 B.n713 B.n64 585
R595 B.n712 B.n711 585
R596 B.n710 B.n65 585
R597 B.n709 B.n708 585
R598 B.n707 B.n66 585
R599 B.n706 B.n705 585
R600 B.n704 B.n67 585
R601 B.n703 B.n702 585
R602 B.n701 B.n68 585
R603 B.n700 B.n699 585
R604 B.n698 B.n69 585
R605 B.n697 B.n696 585
R606 B.n695 B.n70 585
R607 B.n694 B.n693 585
R608 B.n692 B.n71 585
R609 B.n691 B.n690 585
R610 B.n689 B.n72 585
R611 B.n688 B.n687 585
R612 B.n686 B.n73 585
R613 B.n685 B.n684 585
R614 B.n683 B.n74 585
R615 B.n682 B.n681 585
R616 B.n680 B.n75 585
R617 B.n679 B.n678 585
R618 B.n677 B.n76 585
R619 B.n676 B.n675 585
R620 B.n674 B.n77 585
R621 B.n673 B.n672 585
R622 B.n671 B.n78 585
R623 B.n670 B.n669 585
R624 B.n668 B.n79 585
R625 B.n667 B.n666 585
R626 B.n782 B.n37 585
R627 B.n784 B.n783 585
R628 B.n785 B.n36 585
R629 B.n787 B.n786 585
R630 B.n788 B.n35 585
R631 B.n790 B.n789 585
R632 B.n791 B.n34 585
R633 B.n793 B.n792 585
R634 B.n794 B.n33 585
R635 B.n796 B.n795 585
R636 B.n797 B.n32 585
R637 B.n799 B.n798 585
R638 B.n800 B.n31 585
R639 B.n802 B.n801 585
R640 B.n803 B.n30 585
R641 B.n805 B.n804 585
R642 B.n806 B.n29 585
R643 B.n808 B.n807 585
R644 B.n809 B.n28 585
R645 B.n811 B.n810 585
R646 B.n812 B.n27 585
R647 B.n814 B.n813 585
R648 B.n815 B.n26 585
R649 B.n817 B.n816 585
R650 B.n818 B.n25 585
R651 B.n820 B.n819 585
R652 B.n821 B.n24 585
R653 B.n823 B.n822 585
R654 B.n824 B.n23 585
R655 B.n826 B.n825 585
R656 B.n827 B.n22 585
R657 B.n829 B.n828 585
R658 B.n830 B.n21 585
R659 B.n832 B.n831 585
R660 B.n833 B.n20 585
R661 B.n835 B.n834 585
R662 B.n836 B.n19 585
R663 B.n838 B.n837 585
R664 B.n839 B.n18 585
R665 B.n841 B.n840 585
R666 B.n842 B.n17 585
R667 B.n844 B.n843 585
R668 B.n845 B.n16 585
R669 B.n847 B.n846 585
R670 B.n848 B.n15 585
R671 B.n850 B.n849 585
R672 B.n851 B.n14 585
R673 B.n853 B.n852 585
R674 B.n854 B.n13 585
R675 B.n856 B.n855 585
R676 B.n857 B.n12 585
R677 B.n859 B.n858 585
R678 B.n860 B.n11 585
R679 B.n862 B.n861 585
R680 B.n863 B.n10 585
R681 B.n865 B.n864 585
R682 B.n866 B.n9 585
R683 B.n868 B.n867 585
R684 B.n869 B.n8 585
R685 B.n871 B.n870 585
R686 B.n872 B.n7 585
R687 B.n874 B.n873 585
R688 B.n875 B.n6 585
R689 B.n877 B.n876 585
R690 B.n878 B.n5 585
R691 B.n880 B.n879 585
R692 B.n881 B.n4 585
R693 B.n883 B.n882 585
R694 B.n884 B.n3 585
R695 B.n886 B.n885 585
R696 B.n887 B.n0 585
R697 B.n2 B.n1 585
R698 B.n228 B.n227 585
R699 B.n229 B.n226 585
R700 B.n231 B.n230 585
R701 B.n232 B.n225 585
R702 B.n234 B.n233 585
R703 B.n235 B.n224 585
R704 B.n237 B.n236 585
R705 B.n238 B.n223 585
R706 B.n240 B.n239 585
R707 B.n241 B.n222 585
R708 B.n243 B.n242 585
R709 B.n244 B.n221 585
R710 B.n246 B.n245 585
R711 B.n247 B.n220 585
R712 B.n249 B.n248 585
R713 B.n250 B.n219 585
R714 B.n252 B.n251 585
R715 B.n253 B.n218 585
R716 B.n255 B.n254 585
R717 B.n256 B.n217 585
R718 B.n258 B.n257 585
R719 B.n259 B.n216 585
R720 B.n261 B.n260 585
R721 B.n262 B.n215 585
R722 B.n264 B.n263 585
R723 B.n265 B.n214 585
R724 B.n267 B.n266 585
R725 B.n268 B.n213 585
R726 B.n270 B.n269 585
R727 B.n271 B.n212 585
R728 B.n273 B.n272 585
R729 B.n274 B.n211 585
R730 B.n276 B.n275 585
R731 B.n277 B.n210 585
R732 B.n279 B.n278 585
R733 B.n280 B.n209 585
R734 B.n282 B.n281 585
R735 B.n283 B.n208 585
R736 B.n285 B.n284 585
R737 B.n286 B.n207 585
R738 B.n288 B.n287 585
R739 B.n289 B.n206 585
R740 B.n291 B.n290 585
R741 B.n292 B.n205 585
R742 B.n294 B.n293 585
R743 B.n295 B.n204 585
R744 B.n297 B.n296 585
R745 B.n298 B.n203 585
R746 B.n300 B.n299 585
R747 B.n301 B.n202 585
R748 B.n303 B.n302 585
R749 B.n304 B.n201 585
R750 B.n306 B.n305 585
R751 B.n307 B.n200 585
R752 B.n309 B.n308 585
R753 B.n310 B.n199 585
R754 B.n312 B.n311 585
R755 B.n313 B.n198 585
R756 B.n315 B.n314 585
R757 B.n316 B.n197 585
R758 B.n318 B.n317 585
R759 B.n319 B.n196 585
R760 B.n321 B.n320 585
R761 B.n322 B.n195 585
R762 B.n324 B.n323 585
R763 B.n325 B.n194 585
R764 B.n327 B.n326 585
R765 B.n328 B.n193 585
R766 B.n330 B.n329 585
R767 B.n331 B.n192 585
R768 B.n332 B.n331 506.916
R769 B.n450 B.n449 506.916
R770 B.n666 B.n665 506.916
R771 B.n780 B.n37 506.916
R772 B.n174 B.t6 264.51
R773 B.n396 B.t3 264.51
R774 B.n62 B.t9 264.51
R775 B.n54 B.t0 264.51
R776 B.n889 B.n888 256.663
R777 B.n888 B.n887 235.042
R778 B.n888 B.n2 235.042
R779 B.n396 B.t4 197.069
R780 B.n62 B.t11 197.069
R781 B.n174 B.t7 197.059
R782 B.n54 B.t2 197.059
R783 B.n332 B.n191 163.367
R784 B.n336 B.n191 163.367
R785 B.n337 B.n336 163.367
R786 B.n338 B.n337 163.367
R787 B.n338 B.n189 163.367
R788 B.n342 B.n189 163.367
R789 B.n343 B.n342 163.367
R790 B.n344 B.n343 163.367
R791 B.n344 B.n187 163.367
R792 B.n348 B.n187 163.367
R793 B.n349 B.n348 163.367
R794 B.n350 B.n349 163.367
R795 B.n350 B.n185 163.367
R796 B.n354 B.n185 163.367
R797 B.n355 B.n354 163.367
R798 B.n356 B.n355 163.367
R799 B.n356 B.n183 163.367
R800 B.n360 B.n183 163.367
R801 B.n361 B.n360 163.367
R802 B.n362 B.n361 163.367
R803 B.n362 B.n181 163.367
R804 B.n366 B.n181 163.367
R805 B.n367 B.n366 163.367
R806 B.n368 B.n367 163.367
R807 B.n368 B.n179 163.367
R808 B.n372 B.n179 163.367
R809 B.n373 B.n372 163.367
R810 B.n374 B.n373 163.367
R811 B.n374 B.n177 163.367
R812 B.n378 B.n177 163.367
R813 B.n379 B.n378 163.367
R814 B.n380 B.n379 163.367
R815 B.n380 B.n173 163.367
R816 B.n385 B.n173 163.367
R817 B.n386 B.n385 163.367
R818 B.n387 B.n386 163.367
R819 B.n387 B.n171 163.367
R820 B.n391 B.n171 163.367
R821 B.n392 B.n391 163.367
R822 B.n393 B.n392 163.367
R823 B.n393 B.n169 163.367
R824 B.n400 B.n169 163.367
R825 B.n401 B.n400 163.367
R826 B.n402 B.n401 163.367
R827 B.n402 B.n167 163.367
R828 B.n406 B.n167 163.367
R829 B.n407 B.n406 163.367
R830 B.n408 B.n407 163.367
R831 B.n408 B.n165 163.367
R832 B.n412 B.n165 163.367
R833 B.n413 B.n412 163.367
R834 B.n414 B.n413 163.367
R835 B.n414 B.n163 163.367
R836 B.n418 B.n163 163.367
R837 B.n419 B.n418 163.367
R838 B.n420 B.n419 163.367
R839 B.n420 B.n161 163.367
R840 B.n424 B.n161 163.367
R841 B.n425 B.n424 163.367
R842 B.n426 B.n425 163.367
R843 B.n426 B.n159 163.367
R844 B.n430 B.n159 163.367
R845 B.n431 B.n430 163.367
R846 B.n432 B.n431 163.367
R847 B.n432 B.n157 163.367
R848 B.n436 B.n157 163.367
R849 B.n437 B.n436 163.367
R850 B.n438 B.n437 163.367
R851 B.n438 B.n155 163.367
R852 B.n442 B.n155 163.367
R853 B.n443 B.n442 163.367
R854 B.n444 B.n443 163.367
R855 B.n444 B.n153 163.367
R856 B.n448 B.n153 163.367
R857 B.n449 B.n448 163.367
R858 B.n665 B.n664 163.367
R859 B.n664 B.n81 163.367
R860 B.n660 B.n81 163.367
R861 B.n660 B.n659 163.367
R862 B.n659 B.n658 163.367
R863 B.n658 B.n83 163.367
R864 B.n654 B.n83 163.367
R865 B.n654 B.n653 163.367
R866 B.n653 B.n652 163.367
R867 B.n652 B.n85 163.367
R868 B.n648 B.n85 163.367
R869 B.n648 B.n647 163.367
R870 B.n647 B.n646 163.367
R871 B.n646 B.n87 163.367
R872 B.n642 B.n87 163.367
R873 B.n642 B.n641 163.367
R874 B.n641 B.n640 163.367
R875 B.n640 B.n89 163.367
R876 B.n636 B.n89 163.367
R877 B.n636 B.n635 163.367
R878 B.n635 B.n634 163.367
R879 B.n634 B.n91 163.367
R880 B.n630 B.n91 163.367
R881 B.n630 B.n629 163.367
R882 B.n629 B.n628 163.367
R883 B.n628 B.n93 163.367
R884 B.n624 B.n93 163.367
R885 B.n624 B.n623 163.367
R886 B.n623 B.n622 163.367
R887 B.n622 B.n95 163.367
R888 B.n618 B.n95 163.367
R889 B.n618 B.n617 163.367
R890 B.n617 B.n616 163.367
R891 B.n616 B.n97 163.367
R892 B.n612 B.n97 163.367
R893 B.n612 B.n611 163.367
R894 B.n611 B.n610 163.367
R895 B.n610 B.n99 163.367
R896 B.n606 B.n99 163.367
R897 B.n606 B.n605 163.367
R898 B.n605 B.n604 163.367
R899 B.n604 B.n101 163.367
R900 B.n600 B.n101 163.367
R901 B.n600 B.n599 163.367
R902 B.n599 B.n598 163.367
R903 B.n598 B.n103 163.367
R904 B.n594 B.n103 163.367
R905 B.n594 B.n593 163.367
R906 B.n593 B.n592 163.367
R907 B.n592 B.n105 163.367
R908 B.n588 B.n105 163.367
R909 B.n588 B.n587 163.367
R910 B.n587 B.n586 163.367
R911 B.n586 B.n107 163.367
R912 B.n582 B.n107 163.367
R913 B.n582 B.n581 163.367
R914 B.n581 B.n580 163.367
R915 B.n580 B.n109 163.367
R916 B.n576 B.n109 163.367
R917 B.n576 B.n575 163.367
R918 B.n575 B.n574 163.367
R919 B.n574 B.n111 163.367
R920 B.n570 B.n111 163.367
R921 B.n570 B.n569 163.367
R922 B.n569 B.n568 163.367
R923 B.n568 B.n113 163.367
R924 B.n564 B.n113 163.367
R925 B.n564 B.n563 163.367
R926 B.n563 B.n562 163.367
R927 B.n562 B.n115 163.367
R928 B.n558 B.n115 163.367
R929 B.n558 B.n557 163.367
R930 B.n557 B.n556 163.367
R931 B.n556 B.n117 163.367
R932 B.n552 B.n117 163.367
R933 B.n552 B.n551 163.367
R934 B.n551 B.n550 163.367
R935 B.n550 B.n119 163.367
R936 B.n546 B.n119 163.367
R937 B.n546 B.n545 163.367
R938 B.n545 B.n544 163.367
R939 B.n544 B.n121 163.367
R940 B.n540 B.n121 163.367
R941 B.n540 B.n539 163.367
R942 B.n539 B.n538 163.367
R943 B.n538 B.n123 163.367
R944 B.n534 B.n123 163.367
R945 B.n534 B.n533 163.367
R946 B.n533 B.n532 163.367
R947 B.n532 B.n125 163.367
R948 B.n528 B.n125 163.367
R949 B.n528 B.n527 163.367
R950 B.n527 B.n526 163.367
R951 B.n526 B.n127 163.367
R952 B.n522 B.n127 163.367
R953 B.n522 B.n521 163.367
R954 B.n521 B.n520 163.367
R955 B.n520 B.n129 163.367
R956 B.n516 B.n129 163.367
R957 B.n516 B.n515 163.367
R958 B.n515 B.n514 163.367
R959 B.n514 B.n131 163.367
R960 B.n510 B.n131 163.367
R961 B.n510 B.n509 163.367
R962 B.n509 B.n508 163.367
R963 B.n508 B.n133 163.367
R964 B.n504 B.n133 163.367
R965 B.n504 B.n503 163.367
R966 B.n503 B.n502 163.367
R967 B.n502 B.n135 163.367
R968 B.n498 B.n135 163.367
R969 B.n498 B.n497 163.367
R970 B.n497 B.n496 163.367
R971 B.n496 B.n137 163.367
R972 B.n492 B.n137 163.367
R973 B.n492 B.n491 163.367
R974 B.n491 B.n490 163.367
R975 B.n490 B.n139 163.367
R976 B.n486 B.n139 163.367
R977 B.n486 B.n485 163.367
R978 B.n485 B.n484 163.367
R979 B.n484 B.n141 163.367
R980 B.n480 B.n141 163.367
R981 B.n480 B.n479 163.367
R982 B.n479 B.n478 163.367
R983 B.n478 B.n143 163.367
R984 B.n474 B.n143 163.367
R985 B.n474 B.n473 163.367
R986 B.n473 B.n472 163.367
R987 B.n472 B.n145 163.367
R988 B.n468 B.n145 163.367
R989 B.n468 B.n467 163.367
R990 B.n467 B.n466 163.367
R991 B.n466 B.n147 163.367
R992 B.n462 B.n147 163.367
R993 B.n462 B.n461 163.367
R994 B.n461 B.n460 163.367
R995 B.n460 B.n149 163.367
R996 B.n456 B.n149 163.367
R997 B.n456 B.n455 163.367
R998 B.n455 B.n454 163.367
R999 B.n454 B.n151 163.367
R1000 B.n450 B.n151 163.367
R1001 B.n780 B.n779 163.367
R1002 B.n779 B.n778 163.367
R1003 B.n778 B.n39 163.367
R1004 B.n774 B.n39 163.367
R1005 B.n774 B.n773 163.367
R1006 B.n773 B.n772 163.367
R1007 B.n772 B.n41 163.367
R1008 B.n768 B.n41 163.367
R1009 B.n768 B.n767 163.367
R1010 B.n767 B.n766 163.367
R1011 B.n766 B.n43 163.367
R1012 B.n762 B.n43 163.367
R1013 B.n762 B.n761 163.367
R1014 B.n761 B.n760 163.367
R1015 B.n760 B.n45 163.367
R1016 B.n756 B.n45 163.367
R1017 B.n756 B.n755 163.367
R1018 B.n755 B.n754 163.367
R1019 B.n754 B.n47 163.367
R1020 B.n750 B.n47 163.367
R1021 B.n750 B.n749 163.367
R1022 B.n749 B.n748 163.367
R1023 B.n748 B.n49 163.367
R1024 B.n744 B.n49 163.367
R1025 B.n744 B.n743 163.367
R1026 B.n743 B.n742 163.367
R1027 B.n742 B.n51 163.367
R1028 B.n738 B.n51 163.367
R1029 B.n738 B.n737 163.367
R1030 B.n737 B.n736 163.367
R1031 B.n736 B.n53 163.367
R1032 B.n732 B.n53 163.367
R1033 B.n732 B.n731 163.367
R1034 B.n731 B.n57 163.367
R1035 B.n727 B.n57 163.367
R1036 B.n727 B.n726 163.367
R1037 B.n726 B.n725 163.367
R1038 B.n725 B.n59 163.367
R1039 B.n721 B.n59 163.367
R1040 B.n721 B.n720 163.367
R1041 B.n720 B.n719 163.367
R1042 B.n719 B.n61 163.367
R1043 B.n714 B.n61 163.367
R1044 B.n714 B.n713 163.367
R1045 B.n713 B.n712 163.367
R1046 B.n712 B.n65 163.367
R1047 B.n708 B.n65 163.367
R1048 B.n708 B.n707 163.367
R1049 B.n707 B.n706 163.367
R1050 B.n706 B.n67 163.367
R1051 B.n702 B.n67 163.367
R1052 B.n702 B.n701 163.367
R1053 B.n701 B.n700 163.367
R1054 B.n700 B.n69 163.367
R1055 B.n696 B.n69 163.367
R1056 B.n696 B.n695 163.367
R1057 B.n695 B.n694 163.367
R1058 B.n694 B.n71 163.367
R1059 B.n690 B.n71 163.367
R1060 B.n690 B.n689 163.367
R1061 B.n689 B.n688 163.367
R1062 B.n688 B.n73 163.367
R1063 B.n684 B.n73 163.367
R1064 B.n684 B.n683 163.367
R1065 B.n683 B.n682 163.367
R1066 B.n682 B.n75 163.367
R1067 B.n678 B.n75 163.367
R1068 B.n678 B.n677 163.367
R1069 B.n677 B.n676 163.367
R1070 B.n676 B.n77 163.367
R1071 B.n672 B.n77 163.367
R1072 B.n672 B.n671 163.367
R1073 B.n671 B.n670 163.367
R1074 B.n670 B.n79 163.367
R1075 B.n666 B.n79 163.367
R1076 B.n784 B.n37 163.367
R1077 B.n785 B.n784 163.367
R1078 B.n786 B.n785 163.367
R1079 B.n786 B.n35 163.367
R1080 B.n790 B.n35 163.367
R1081 B.n791 B.n790 163.367
R1082 B.n792 B.n791 163.367
R1083 B.n792 B.n33 163.367
R1084 B.n796 B.n33 163.367
R1085 B.n797 B.n796 163.367
R1086 B.n798 B.n797 163.367
R1087 B.n798 B.n31 163.367
R1088 B.n802 B.n31 163.367
R1089 B.n803 B.n802 163.367
R1090 B.n804 B.n803 163.367
R1091 B.n804 B.n29 163.367
R1092 B.n808 B.n29 163.367
R1093 B.n809 B.n808 163.367