* NGSPICE file created from diff_pair_sample_1731.ext - technology: sky130A

.subckt diff_pair_sample_1731 VTAIL VN VP B VDD2 VDD1
X0 VTAIL.t3 VN.t0 VDD2.t1 B.t3 sky130_fd_pr__nfet_01v8 ad=3.6231 pd=19.36 as=1.53285 ps=9.62 w=9.29 l=3.93
X1 B.t17 B.t15 B.t16 B.t12 sky130_fd_pr__nfet_01v8 ad=3.6231 pd=19.36 as=0 ps=0 w=9.29 l=3.93
X2 VDD1.t3 VP.t0 VTAIL.t7 B.t0 sky130_fd_pr__nfet_01v8 ad=1.53285 pd=9.62 as=3.6231 ps=19.36 w=9.29 l=3.93
X3 VTAIL.t2 VN.t1 VDD2.t2 B.t2 sky130_fd_pr__nfet_01v8 ad=3.6231 pd=19.36 as=1.53285 ps=9.62 w=9.29 l=3.93
X4 VTAIL.t6 VP.t1 VDD1.t2 B.t2 sky130_fd_pr__nfet_01v8 ad=3.6231 pd=19.36 as=1.53285 ps=9.62 w=9.29 l=3.93
X5 B.t14 B.t11 B.t13 B.t12 sky130_fd_pr__nfet_01v8 ad=3.6231 pd=19.36 as=0 ps=0 w=9.29 l=3.93
X6 B.t10 B.t8 B.t9 B.t5 sky130_fd_pr__nfet_01v8 ad=3.6231 pd=19.36 as=0 ps=0 w=9.29 l=3.93
X7 VDD2.t0 VN.t2 VTAIL.t1 B.t1 sky130_fd_pr__nfet_01v8 ad=1.53285 pd=9.62 as=3.6231 ps=19.36 w=9.29 l=3.93
X8 VDD2.t3 VN.t3 VTAIL.t0 B.t0 sky130_fd_pr__nfet_01v8 ad=1.53285 pd=9.62 as=3.6231 ps=19.36 w=9.29 l=3.93
X9 VTAIL.t5 VP.t2 VDD1.t1 B.t3 sky130_fd_pr__nfet_01v8 ad=3.6231 pd=19.36 as=1.53285 ps=9.62 w=9.29 l=3.93
X10 B.t7 B.t4 B.t6 B.t5 sky130_fd_pr__nfet_01v8 ad=3.6231 pd=19.36 as=0 ps=0 w=9.29 l=3.93
X11 VDD1.t0 VP.t3 VTAIL.t4 B.t1 sky130_fd_pr__nfet_01v8 ad=1.53285 pd=9.62 as=3.6231 ps=19.36 w=9.29 l=3.93
R0 VN.n0 VN.t0 90.7955
R1 VN.n1 VN.t2 90.7955
R2 VN.n0 VN.t3 89.3683
R3 VN.n1 VN.t1 89.3683
R4 VN VN.n1 50.2447
R5 VN VN.n0 1.78636
R6 VDD2.n2 VDD2.n0 106.713
R7 VDD2.n2 VDD2.n1 63.9716
R8 VDD2.n1 VDD2.t2 2.13182
R9 VDD2.n1 VDD2.t0 2.13182
R10 VDD2.n0 VDD2.t1 2.13182
R11 VDD2.n0 VDD2.t3 2.13182
R12 VDD2 VDD2.n2 0.0586897
R13 VTAIL.n394 VTAIL.n350 289.615
R14 VTAIL.n44 VTAIL.n0 289.615
R15 VTAIL.n94 VTAIL.n50 289.615
R16 VTAIL.n144 VTAIL.n100 289.615
R17 VTAIL.n344 VTAIL.n300 289.615
R18 VTAIL.n294 VTAIL.n250 289.615
R19 VTAIL.n244 VTAIL.n200 289.615
R20 VTAIL.n194 VTAIL.n150 289.615
R21 VTAIL.n367 VTAIL.n366 185
R22 VTAIL.n369 VTAIL.n368 185
R23 VTAIL.n362 VTAIL.n361 185
R24 VTAIL.n375 VTAIL.n374 185
R25 VTAIL.n377 VTAIL.n376 185
R26 VTAIL.n358 VTAIL.n357 185
R27 VTAIL.n384 VTAIL.n383 185
R28 VTAIL.n385 VTAIL.n356 185
R29 VTAIL.n387 VTAIL.n386 185
R30 VTAIL.n354 VTAIL.n353 185
R31 VTAIL.n393 VTAIL.n392 185
R32 VTAIL.n395 VTAIL.n394 185
R33 VTAIL.n17 VTAIL.n16 185
R34 VTAIL.n19 VTAIL.n18 185
R35 VTAIL.n12 VTAIL.n11 185
R36 VTAIL.n25 VTAIL.n24 185
R37 VTAIL.n27 VTAIL.n26 185
R38 VTAIL.n8 VTAIL.n7 185
R39 VTAIL.n34 VTAIL.n33 185
R40 VTAIL.n35 VTAIL.n6 185
R41 VTAIL.n37 VTAIL.n36 185
R42 VTAIL.n4 VTAIL.n3 185
R43 VTAIL.n43 VTAIL.n42 185
R44 VTAIL.n45 VTAIL.n44 185
R45 VTAIL.n67 VTAIL.n66 185
R46 VTAIL.n69 VTAIL.n68 185
R47 VTAIL.n62 VTAIL.n61 185
R48 VTAIL.n75 VTAIL.n74 185
R49 VTAIL.n77 VTAIL.n76 185
R50 VTAIL.n58 VTAIL.n57 185
R51 VTAIL.n84 VTAIL.n83 185
R52 VTAIL.n85 VTAIL.n56 185
R53 VTAIL.n87 VTAIL.n86 185
R54 VTAIL.n54 VTAIL.n53 185
R55 VTAIL.n93 VTAIL.n92 185
R56 VTAIL.n95 VTAIL.n94 185
R57 VTAIL.n117 VTAIL.n116 185
R58 VTAIL.n119 VTAIL.n118 185
R59 VTAIL.n112 VTAIL.n111 185
R60 VTAIL.n125 VTAIL.n124 185
R61 VTAIL.n127 VTAIL.n126 185
R62 VTAIL.n108 VTAIL.n107 185
R63 VTAIL.n134 VTAIL.n133 185
R64 VTAIL.n135 VTAIL.n106 185
R65 VTAIL.n137 VTAIL.n136 185
R66 VTAIL.n104 VTAIL.n103 185
R67 VTAIL.n143 VTAIL.n142 185
R68 VTAIL.n145 VTAIL.n144 185
R69 VTAIL.n345 VTAIL.n344 185
R70 VTAIL.n343 VTAIL.n342 185
R71 VTAIL.n304 VTAIL.n303 185
R72 VTAIL.n308 VTAIL.n306 185
R73 VTAIL.n337 VTAIL.n336 185
R74 VTAIL.n335 VTAIL.n334 185
R75 VTAIL.n310 VTAIL.n309 185
R76 VTAIL.n329 VTAIL.n328 185
R77 VTAIL.n327 VTAIL.n326 185
R78 VTAIL.n314 VTAIL.n313 185
R79 VTAIL.n321 VTAIL.n320 185
R80 VTAIL.n319 VTAIL.n318 185
R81 VTAIL.n295 VTAIL.n294 185
R82 VTAIL.n293 VTAIL.n292 185
R83 VTAIL.n254 VTAIL.n253 185
R84 VTAIL.n258 VTAIL.n256 185
R85 VTAIL.n287 VTAIL.n286 185
R86 VTAIL.n285 VTAIL.n284 185
R87 VTAIL.n260 VTAIL.n259 185
R88 VTAIL.n279 VTAIL.n278 185
R89 VTAIL.n277 VTAIL.n276 185
R90 VTAIL.n264 VTAIL.n263 185
R91 VTAIL.n271 VTAIL.n270 185
R92 VTAIL.n269 VTAIL.n268 185
R93 VTAIL.n245 VTAIL.n244 185
R94 VTAIL.n243 VTAIL.n242 185
R95 VTAIL.n204 VTAIL.n203 185
R96 VTAIL.n208 VTAIL.n206 185
R97 VTAIL.n237 VTAIL.n236 185
R98 VTAIL.n235 VTAIL.n234 185
R99 VTAIL.n210 VTAIL.n209 185
R100 VTAIL.n229 VTAIL.n228 185
R101 VTAIL.n227 VTAIL.n226 185
R102 VTAIL.n214 VTAIL.n213 185
R103 VTAIL.n221 VTAIL.n220 185
R104 VTAIL.n219 VTAIL.n218 185
R105 VTAIL.n195 VTAIL.n194 185
R106 VTAIL.n193 VTAIL.n192 185
R107 VTAIL.n154 VTAIL.n153 185
R108 VTAIL.n158 VTAIL.n156 185
R109 VTAIL.n187 VTAIL.n186 185
R110 VTAIL.n185 VTAIL.n184 185
R111 VTAIL.n160 VTAIL.n159 185
R112 VTAIL.n179 VTAIL.n178 185
R113 VTAIL.n177 VTAIL.n176 185
R114 VTAIL.n164 VTAIL.n163 185
R115 VTAIL.n171 VTAIL.n170 185
R116 VTAIL.n169 VTAIL.n168 185
R117 VTAIL.n365 VTAIL.t0 149.524
R118 VTAIL.n15 VTAIL.t3 149.524
R119 VTAIL.n65 VTAIL.t4 149.524
R120 VTAIL.n115 VTAIL.t6 149.524
R121 VTAIL.n317 VTAIL.t7 149.524
R122 VTAIL.n267 VTAIL.t5 149.524
R123 VTAIL.n217 VTAIL.t1 149.524
R124 VTAIL.n167 VTAIL.t2 149.524
R125 VTAIL.n368 VTAIL.n367 104.615
R126 VTAIL.n368 VTAIL.n361 104.615
R127 VTAIL.n375 VTAIL.n361 104.615
R128 VTAIL.n376 VTAIL.n375 104.615
R129 VTAIL.n376 VTAIL.n357 104.615
R130 VTAIL.n384 VTAIL.n357 104.615
R131 VTAIL.n385 VTAIL.n384 104.615
R132 VTAIL.n386 VTAIL.n385 104.615
R133 VTAIL.n386 VTAIL.n353 104.615
R134 VTAIL.n393 VTAIL.n353 104.615
R135 VTAIL.n394 VTAIL.n393 104.615
R136 VTAIL.n18 VTAIL.n17 104.615
R137 VTAIL.n18 VTAIL.n11 104.615
R138 VTAIL.n25 VTAIL.n11 104.615
R139 VTAIL.n26 VTAIL.n25 104.615
R140 VTAIL.n26 VTAIL.n7 104.615
R141 VTAIL.n34 VTAIL.n7 104.615
R142 VTAIL.n35 VTAIL.n34 104.615
R143 VTAIL.n36 VTAIL.n35 104.615
R144 VTAIL.n36 VTAIL.n3 104.615
R145 VTAIL.n43 VTAIL.n3 104.615
R146 VTAIL.n44 VTAIL.n43 104.615
R147 VTAIL.n68 VTAIL.n67 104.615
R148 VTAIL.n68 VTAIL.n61 104.615
R149 VTAIL.n75 VTAIL.n61 104.615
R150 VTAIL.n76 VTAIL.n75 104.615
R151 VTAIL.n76 VTAIL.n57 104.615
R152 VTAIL.n84 VTAIL.n57 104.615
R153 VTAIL.n85 VTAIL.n84 104.615
R154 VTAIL.n86 VTAIL.n85 104.615
R155 VTAIL.n86 VTAIL.n53 104.615
R156 VTAIL.n93 VTAIL.n53 104.615
R157 VTAIL.n94 VTAIL.n93 104.615
R158 VTAIL.n118 VTAIL.n117 104.615
R159 VTAIL.n118 VTAIL.n111 104.615
R160 VTAIL.n125 VTAIL.n111 104.615
R161 VTAIL.n126 VTAIL.n125 104.615
R162 VTAIL.n126 VTAIL.n107 104.615
R163 VTAIL.n134 VTAIL.n107 104.615
R164 VTAIL.n135 VTAIL.n134 104.615
R165 VTAIL.n136 VTAIL.n135 104.615
R166 VTAIL.n136 VTAIL.n103 104.615
R167 VTAIL.n143 VTAIL.n103 104.615
R168 VTAIL.n144 VTAIL.n143 104.615
R169 VTAIL.n344 VTAIL.n343 104.615
R170 VTAIL.n343 VTAIL.n303 104.615
R171 VTAIL.n308 VTAIL.n303 104.615
R172 VTAIL.n336 VTAIL.n308 104.615
R173 VTAIL.n336 VTAIL.n335 104.615
R174 VTAIL.n335 VTAIL.n309 104.615
R175 VTAIL.n328 VTAIL.n309 104.615
R176 VTAIL.n328 VTAIL.n327 104.615
R177 VTAIL.n327 VTAIL.n313 104.615
R178 VTAIL.n320 VTAIL.n313 104.615
R179 VTAIL.n320 VTAIL.n319 104.615
R180 VTAIL.n294 VTAIL.n293 104.615
R181 VTAIL.n293 VTAIL.n253 104.615
R182 VTAIL.n258 VTAIL.n253 104.615
R183 VTAIL.n286 VTAIL.n258 104.615
R184 VTAIL.n286 VTAIL.n285 104.615
R185 VTAIL.n285 VTAIL.n259 104.615
R186 VTAIL.n278 VTAIL.n259 104.615
R187 VTAIL.n278 VTAIL.n277 104.615
R188 VTAIL.n277 VTAIL.n263 104.615
R189 VTAIL.n270 VTAIL.n263 104.615
R190 VTAIL.n270 VTAIL.n269 104.615
R191 VTAIL.n244 VTAIL.n243 104.615
R192 VTAIL.n243 VTAIL.n203 104.615
R193 VTAIL.n208 VTAIL.n203 104.615
R194 VTAIL.n236 VTAIL.n208 104.615
R195 VTAIL.n236 VTAIL.n235 104.615
R196 VTAIL.n235 VTAIL.n209 104.615
R197 VTAIL.n228 VTAIL.n209 104.615
R198 VTAIL.n228 VTAIL.n227 104.615
R199 VTAIL.n227 VTAIL.n213 104.615
R200 VTAIL.n220 VTAIL.n213 104.615
R201 VTAIL.n220 VTAIL.n219 104.615
R202 VTAIL.n194 VTAIL.n193 104.615
R203 VTAIL.n193 VTAIL.n153 104.615
R204 VTAIL.n158 VTAIL.n153 104.615
R205 VTAIL.n186 VTAIL.n158 104.615
R206 VTAIL.n186 VTAIL.n185 104.615
R207 VTAIL.n185 VTAIL.n159 104.615
R208 VTAIL.n178 VTAIL.n159 104.615
R209 VTAIL.n178 VTAIL.n177 104.615
R210 VTAIL.n177 VTAIL.n163 104.615
R211 VTAIL.n170 VTAIL.n163 104.615
R212 VTAIL.n170 VTAIL.n169 104.615
R213 VTAIL.n367 VTAIL.t0 52.3082
R214 VTAIL.n17 VTAIL.t3 52.3082
R215 VTAIL.n67 VTAIL.t4 52.3082
R216 VTAIL.n117 VTAIL.t6 52.3082
R217 VTAIL.n319 VTAIL.t7 52.3082
R218 VTAIL.n269 VTAIL.t5 52.3082
R219 VTAIL.n219 VTAIL.t1 52.3082
R220 VTAIL.n169 VTAIL.t2 52.3082
R221 VTAIL.n399 VTAIL.n398 33.155
R222 VTAIL.n49 VTAIL.n48 33.155
R223 VTAIL.n99 VTAIL.n98 33.155
R224 VTAIL.n149 VTAIL.n148 33.155
R225 VTAIL.n349 VTAIL.n348 33.155
R226 VTAIL.n299 VTAIL.n298 33.155
R227 VTAIL.n249 VTAIL.n248 33.155
R228 VTAIL.n199 VTAIL.n198 33.155
R229 VTAIL.n399 VTAIL.n349 24.0479
R230 VTAIL.n199 VTAIL.n149 24.0479
R231 VTAIL.n387 VTAIL.n354 13.1884
R232 VTAIL.n37 VTAIL.n4 13.1884
R233 VTAIL.n87 VTAIL.n54 13.1884
R234 VTAIL.n137 VTAIL.n104 13.1884
R235 VTAIL.n306 VTAIL.n304 13.1884
R236 VTAIL.n256 VTAIL.n254 13.1884
R237 VTAIL.n206 VTAIL.n204 13.1884
R238 VTAIL.n156 VTAIL.n154 13.1884
R239 VTAIL.n388 VTAIL.n356 12.8005
R240 VTAIL.n392 VTAIL.n391 12.8005
R241 VTAIL.n38 VTAIL.n6 12.8005
R242 VTAIL.n42 VTAIL.n41 12.8005
R243 VTAIL.n88 VTAIL.n56 12.8005
R244 VTAIL.n92 VTAIL.n91 12.8005
R245 VTAIL.n138 VTAIL.n106 12.8005
R246 VTAIL.n142 VTAIL.n141 12.8005
R247 VTAIL.n342 VTAIL.n341 12.8005
R248 VTAIL.n338 VTAIL.n337 12.8005
R249 VTAIL.n292 VTAIL.n291 12.8005
R250 VTAIL.n288 VTAIL.n287 12.8005
R251 VTAIL.n242 VTAIL.n241 12.8005
R252 VTAIL.n238 VTAIL.n237 12.8005
R253 VTAIL.n192 VTAIL.n191 12.8005
R254 VTAIL.n188 VTAIL.n187 12.8005
R255 VTAIL.n383 VTAIL.n382 12.0247
R256 VTAIL.n395 VTAIL.n352 12.0247
R257 VTAIL.n33 VTAIL.n32 12.0247
R258 VTAIL.n45 VTAIL.n2 12.0247
R259 VTAIL.n83 VTAIL.n82 12.0247
R260 VTAIL.n95 VTAIL.n52 12.0247
R261 VTAIL.n133 VTAIL.n132 12.0247
R262 VTAIL.n145 VTAIL.n102 12.0247
R263 VTAIL.n345 VTAIL.n302 12.0247
R264 VTAIL.n334 VTAIL.n307 12.0247
R265 VTAIL.n295 VTAIL.n252 12.0247
R266 VTAIL.n284 VTAIL.n257 12.0247
R267 VTAIL.n245 VTAIL.n202 12.0247
R268 VTAIL.n234 VTAIL.n207 12.0247
R269 VTAIL.n195 VTAIL.n152 12.0247
R270 VTAIL.n184 VTAIL.n157 12.0247
R271 VTAIL.n381 VTAIL.n358 11.249
R272 VTAIL.n396 VTAIL.n350 11.249
R273 VTAIL.n31 VTAIL.n8 11.249
R274 VTAIL.n46 VTAIL.n0 11.249
R275 VTAIL.n81 VTAIL.n58 11.249
R276 VTAIL.n96 VTAIL.n50 11.249
R277 VTAIL.n131 VTAIL.n108 11.249
R278 VTAIL.n146 VTAIL.n100 11.249
R279 VTAIL.n346 VTAIL.n300 11.249
R280 VTAIL.n333 VTAIL.n310 11.249
R281 VTAIL.n296 VTAIL.n250 11.249
R282 VTAIL.n283 VTAIL.n260 11.249
R283 VTAIL.n246 VTAIL.n200 11.249
R284 VTAIL.n233 VTAIL.n210 11.249
R285 VTAIL.n196 VTAIL.n150 11.249
R286 VTAIL.n183 VTAIL.n160 11.249
R287 VTAIL.n378 VTAIL.n377 10.4732
R288 VTAIL.n28 VTAIL.n27 10.4732
R289 VTAIL.n78 VTAIL.n77 10.4732
R290 VTAIL.n128 VTAIL.n127 10.4732
R291 VTAIL.n330 VTAIL.n329 10.4732
R292 VTAIL.n280 VTAIL.n279 10.4732
R293 VTAIL.n230 VTAIL.n229 10.4732
R294 VTAIL.n180 VTAIL.n179 10.4732
R295 VTAIL.n366 VTAIL.n365 10.2747
R296 VTAIL.n16 VTAIL.n15 10.2747
R297 VTAIL.n66 VTAIL.n65 10.2747
R298 VTAIL.n116 VTAIL.n115 10.2747
R299 VTAIL.n318 VTAIL.n317 10.2747
R300 VTAIL.n268 VTAIL.n267 10.2747
R301 VTAIL.n218 VTAIL.n217 10.2747
R302 VTAIL.n168 VTAIL.n167 10.2747
R303 VTAIL.n374 VTAIL.n360 9.69747
R304 VTAIL.n24 VTAIL.n10 9.69747
R305 VTAIL.n74 VTAIL.n60 9.69747
R306 VTAIL.n124 VTAIL.n110 9.69747
R307 VTAIL.n326 VTAIL.n312 9.69747
R308 VTAIL.n276 VTAIL.n262 9.69747
R309 VTAIL.n226 VTAIL.n212 9.69747
R310 VTAIL.n176 VTAIL.n162 9.69747
R311 VTAIL.n398 VTAIL.n397 9.45567
R312 VTAIL.n48 VTAIL.n47 9.45567
R313 VTAIL.n98 VTAIL.n97 9.45567
R314 VTAIL.n148 VTAIL.n147 9.45567
R315 VTAIL.n348 VTAIL.n347 9.45567
R316 VTAIL.n298 VTAIL.n297 9.45567
R317 VTAIL.n248 VTAIL.n247 9.45567
R318 VTAIL.n198 VTAIL.n197 9.45567
R319 VTAIL.n397 VTAIL.n396 9.3005
R320 VTAIL.n352 VTAIL.n351 9.3005
R321 VTAIL.n391 VTAIL.n390 9.3005
R322 VTAIL.n364 VTAIL.n363 9.3005
R323 VTAIL.n371 VTAIL.n370 9.3005
R324 VTAIL.n373 VTAIL.n372 9.3005
R325 VTAIL.n360 VTAIL.n359 9.3005
R326 VTAIL.n379 VTAIL.n378 9.3005
R327 VTAIL.n381 VTAIL.n380 9.3005
R328 VTAIL.n382 VTAIL.n355 9.3005
R329 VTAIL.n389 VTAIL.n388 9.3005
R330 VTAIL.n47 VTAIL.n46 9.3005
R331 VTAIL.n2 VTAIL.n1 9.3005
R332 VTAIL.n41 VTAIL.n40 9.3005
R333 VTAIL.n14 VTAIL.n13 9.3005
R334 VTAIL.n21 VTAIL.n20 9.3005
R335 VTAIL.n23 VTAIL.n22 9.3005
R336 VTAIL.n10 VTAIL.n9 9.3005
R337 VTAIL.n29 VTAIL.n28 9.3005
R338 VTAIL.n31 VTAIL.n30 9.3005
R339 VTAIL.n32 VTAIL.n5 9.3005
R340 VTAIL.n39 VTAIL.n38 9.3005
R341 VTAIL.n97 VTAIL.n96 9.3005
R342 VTAIL.n52 VTAIL.n51 9.3005
R343 VTAIL.n91 VTAIL.n90 9.3005
R344 VTAIL.n64 VTAIL.n63 9.3005
R345 VTAIL.n71 VTAIL.n70 9.3005
R346 VTAIL.n73 VTAIL.n72 9.3005
R347 VTAIL.n60 VTAIL.n59 9.3005
R348 VTAIL.n79 VTAIL.n78 9.3005
R349 VTAIL.n81 VTAIL.n80 9.3005
R350 VTAIL.n82 VTAIL.n55 9.3005
R351 VTAIL.n89 VTAIL.n88 9.3005
R352 VTAIL.n147 VTAIL.n146 9.3005
R353 VTAIL.n102 VTAIL.n101 9.3005
R354 VTAIL.n141 VTAIL.n140 9.3005
R355 VTAIL.n114 VTAIL.n113 9.3005
R356 VTAIL.n121 VTAIL.n120 9.3005
R357 VTAIL.n123 VTAIL.n122 9.3005
R358 VTAIL.n110 VTAIL.n109 9.3005
R359 VTAIL.n129 VTAIL.n128 9.3005
R360 VTAIL.n131 VTAIL.n130 9.3005
R361 VTAIL.n132 VTAIL.n105 9.3005
R362 VTAIL.n139 VTAIL.n138 9.3005
R363 VTAIL.n316 VTAIL.n315 9.3005
R364 VTAIL.n323 VTAIL.n322 9.3005
R365 VTAIL.n325 VTAIL.n324 9.3005
R366 VTAIL.n312 VTAIL.n311 9.3005
R367 VTAIL.n331 VTAIL.n330 9.3005
R368 VTAIL.n333 VTAIL.n332 9.3005
R369 VTAIL.n307 VTAIL.n305 9.3005
R370 VTAIL.n339 VTAIL.n338 9.3005
R371 VTAIL.n347 VTAIL.n346 9.3005
R372 VTAIL.n302 VTAIL.n301 9.3005
R373 VTAIL.n341 VTAIL.n340 9.3005
R374 VTAIL.n266 VTAIL.n265 9.3005
R375 VTAIL.n273 VTAIL.n272 9.3005
R376 VTAIL.n275 VTAIL.n274 9.3005
R377 VTAIL.n262 VTAIL.n261 9.3005
R378 VTAIL.n281 VTAIL.n280 9.3005
R379 VTAIL.n283 VTAIL.n282 9.3005
R380 VTAIL.n257 VTAIL.n255 9.3005
R381 VTAIL.n289 VTAIL.n288 9.3005
R382 VTAIL.n297 VTAIL.n296 9.3005
R383 VTAIL.n252 VTAIL.n251 9.3005
R384 VTAIL.n291 VTAIL.n290 9.3005
R385 VTAIL.n216 VTAIL.n215 9.3005
R386 VTAIL.n223 VTAIL.n222 9.3005
R387 VTAIL.n225 VTAIL.n224 9.3005
R388 VTAIL.n212 VTAIL.n211 9.3005
R389 VTAIL.n231 VTAIL.n230 9.3005
R390 VTAIL.n233 VTAIL.n232 9.3005
R391 VTAIL.n207 VTAIL.n205 9.3005
R392 VTAIL.n239 VTAIL.n238 9.3005
R393 VTAIL.n247 VTAIL.n246 9.3005
R394 VTAIL.n202 VTAIL.n201 9.3005
R395 VTAIL.n241 VTAIL.n240 9.3005
R396 VTAIL.n166 VTAIL.n165 9.3005
R397 VTAIL.n173 VTAIL.n172 9.3005
R398 VTAIL.n175 VTAIL.n174 9.3005
R399 VTAIL.n162 VTAIL.n161 9.3005
R400 VTAIL.n181 VTAIL.n180 9.3005
R401 VTAIL.n183 VTAIL.n182 9.3005
R402 VTAIL.n157 VTAIL.n155 9.3005
R403 VTAIL.n189 VTAIL.n188 9.3005
R404 VTAIL.n197 VTAIL.n196 9.3005
R405 VTAIL.n152 VTAIL.n151 9.3005
R406 VTAIL.n191 VTAIL.n190 9.3005
R407 VTAIL.n373 VTAIL.n362 8.92171
R408 VTAIL.n23 VTAIL.n12 8.92171
R409 VTAIL.n73 VTAIL.n62 8.92171
R410 VTAIL.n123 VTAIL.n112 8.92171
R411 VTAIL.n325 VTAIL.n314 8.92171
R412 VTAIL.n275 VTAIL.n264 8.92171
R413 VTAIL.n225 VTAIL.n214 8.92171
R414 VTAIL.n175 VTAIL.n164 8.92171
R415 VTAIL.n370 VTAIL.n369 8.14595
R416 VTAIL.n20 VTAIL.n19 8.14595
R417 VTAIL.n70 VTAIL.n69 8.14595
R418 VTAIL.n120 VTAIL.n119 8.14595
R419 VTAIL.n322 VTAIL.n321 8.14595
R420 VTAIL.n272 VTAIL.n271 8.14595
R421 VTAIL.n222 VTAIL.n221 8.14595
R422 VTAIL.n172 VTAIL.n171 8.14595
R423 VTAIL.n366 VTAIL.n364 7.3702
R424 VTAIL.n16 VTAIL.n14 7.3702
R425 VTAIL.n66 VTAIL.n64 7.3702
R426 VTAIL.n116 VTAIL.n114 7.3702
R427 VTAIL.n318 VTAIL.n316 7.3702
R428 VTAIL.n268 VTAIL.n266 7.3702
R429 VTAIL.n218 VTAIL.n216 7.3702
R430 VTAIL.n168 VTAIL.n166 7.3702
R431 VTAIL.n369 VTAIL.n364 5.81868
R432 VTAIL.n19 VTAIL.n14 5.81868
R433 VTAIL.n69 VTAIL.n64 5.81868
R434 VTAIL.n119 VTAIL.n114 5.81868
R435 VTAIL.n321 VTAIL.n316 5.81868
R436 VTAIL.n271 VTAIL.n266 5.81868
R437 VTAIL.n221 VTAIL.n216 5.81868
R438 VTAIL.n171 VTAIL.n166 5.81868
R439 VTAIL.n370 VTAIL.n362 5.04292
R440 VTAIL.n20 VTAIL.n12 5.04292
R441 VTAIL.n70 VTAIL.n62 5.04292
R442 VTAIL.n120 VTAIL.n112 5.04292
R443 VTAIL.n322 VTAIL.n314 5.04292
R444 VTAIL.n272 VTAIL.n264 5.04292
R445 VTAIL.n222 VTAIL.n214 5.04292
R446 VTAIL.n172 VTAIL.n164 5.04292
R447 VTAIL.n374 VTAIL.n373 4.26717
R448 VTAIL.n24 VTAIL.n23 4.26717
R449 VTAIL.n74 VTAIL.n73 4.26717
R450 VTAIL.n124 VTAIL.n123 4.26717
R451 VTAIL.n326 VTAIL.n325 4.26717
R452 VTAIL.n276 VTAIL.n275 4.26717
R453 VTAIL.n226 VTAIL.n225 4.26717
R454 VTAIL.n176 VTAIL.n175 4.26717
R455 VTAIL.n249 VTAIL.n199 3.67291
R456 VTAIL.n349 VTAIL.n299 3.67291
R457 VTAIL.n149 VTAIL.n99 3.67291
R458 VTAIL.n377 VTAIL.n360 3.49141
R459 VTAIL.n27 VTAIL.n10 3.49141
R460 VTAIL.n77 VTAIL.n60 3.49141
R461 VTAIL.n127 VTAIL.n110 3.49141
R462 VTAIL.n329 VTAIL.n312 3.49141
R463 VTAIL.n279 VTAIL.n262 3.49141
R464 VTAIL.n229 VTAIL.n212 3.49141
R465 VTAIL.n179 VTAIL.n162 3.49141
R466 VTAIL.n365 VTAIL.n363 2.84303
R467 VTAIL.n15 VTAIL.n13 2.84303
R468 VTAIL.n65 VTAIL.n63 2.84303
R469 VTAIL.n115 VTAIL.n113 2.84303
R470 VTAIL.n317 VTAIL.n315 2.84303
R471 VTAIL.n267 VTAIL.n265 2.84303
R472 VTAIL.n217 VTAIL.n215 2.84303
R473 VTAIL.n167 VTAIL.n165 2.84303
R474 VTAIL.n378 VTAIL.n358 2.71565
R475 VTAIL.n398 VTAIL.n350 2.71565
R476 VTAIL.n28 VTAIL.n8 2.71565
R477 VTAIL.n48 VTAIL.n0 2.71565
R478 VTAIL.n78 VTAIL.n58 2.71565
R479 VTAIL.n98 VTAIL.n50 2.71565
R480 VTAIL.n128 VTAIL.n108 2.71565
R481 VTAIL.n148 VTAIL.n100 2.71565
R482 VTAIL.n348 VTAIL.n300 2.71565
R483 VTAIL.n330 VTAIL.n310 2.71565
R484 VTAIL.n298 VTAIL.n250 2.71565
R485 VTAIL.n280 VTAIL.n260 2.71565
R486 VTAIL.n248 VTAIL.n200 2.71565
R487 VTAIL.n230 VTAIL.n210 2.71565
R488 VTAIL.n198 VTAIL.n150 2.71565
R489 VTAIL.n180 VTAIL.n160 2.71565
R490 VTAIL.n383 VTAIL.n381 1.93989
R491 VTAIL.n396 VTAIL.n395 1.93989
R492 VTAIL.n33 VTAIL.n31 1.93989
R493 VTAIL.n46 VTAIL.n45 1.93989
R494 VTAIL.n83 VTAIL.n81 1.93989
R495 VTAIL.n96 VTAIL.n95 1.93989
R496 VTAIL.n133 VTAIL.n131 1.93989
R497 VTAIL.n146 VTAIL.n145 1.93989
R498 VTAIL.n346 VTAIL.n345 1.93989
R499 VTAIL.n334 VTAIL.n333 1.93989
R500 VTAIL.n296 VTAIL.n295 1.93989
R501 VTAIL.n284 VTAIL.n283 1.93989
R502 VTAIL.n246 VTAIL.n245 1.93989
R503 VTAIL.n234 VTAIL.n233 1.93989
R504 VTAIL.n196 VTAIL.n195 1.93989
R505 VTAIL.n184 VTAIL.n183 1.93989
R506 VTAIL VTAIL.n49 1.8949
R507 VTAIL VTAIL.n399 1.77852
R508 VTAIL.n382 VTAIL.n356 1.16414
R509 VTAIL.n392 VTAIL.n352 1.16414
R510 VTAIL.n32 VTAIL.n6 1.16414
R511 VTAIL.n42 VTAIL.n2 1.16414
R512 VTAIL.n82 VTAIL.n56 1.16414
R513 VTAIL.n92 VTAIL.n52 1.16414
R514 VTAIL.n132 VTAIL.n106 1.16414
R515 VTAIL.n142 VTAIL.n102 1.16414
R516 VTAIL.n342 VTAIL.n302 1.16414
R517 VTAIL.n337 VTAIL.n307 1.16414
R518 VTAIL.n292 VTAIL.n252 1.16414
R519 VTAIL.n287 VTAIL.n257 1.16414
R520 VTAIL.n242 VTAIL.n202 1.16414
R521 VTAIL.n237 VTAIL.n207 1.16414
R522 VTAIL.n192 VTAIL.n152 1.16414
R523 VTAIL.n187 VTAIL.n157 1.16414
R524 VTAIL.n299 VTAIL.n249 0.470328
R525 VTAIL.n99 VTAIL.n49 0.470328
R526 VTAIL.n388 VTAIL.n387 0.388379
R527 VTAIL.n391 VTAIL.n354 0.388379
R528 VTAIL.n38 VTAIL.n37 0.388379
R529 VTAIL.n41 VTAIL.n4 0.388379
R530 VTAIL.n88 VTAIL.n87 0.388379
R531 VTAIL.n91 VTAIL.n54 0.388379
R532 VTAIL.n138 VTAIL.n137 0.388379
R533 VTAIL.n141 VTAIL.n104 0.388379
R534 VTAIL.n341 VTAIL.n304 0.388379
R535 VTAIL.n338 VTAIL.n306 0.388379
R536 VTAIL.n291 VTAIL.n254 0.388379
R537 VTAIL.n288 VTAIL.n256 0.388379
R538 VTAIL.n241 VTAIL.n204 0.388379
R539 VTAIL.n238 VTAIL.n206 0.388379
R540 VTAIL.n191 VTAIL.n154 0.388379
R541 VTAIL.n188 VTAIL.n156 0.388379
R542 VTAIL.n371 VTAIL.n363 0.155672
R543 VTAIL.n372 VTAIL.n371 0.155672
R544 VTAIL.n372 VTAIL.n359 0.155672
R545 VTAIL.n379 VTAIL.n359 0.155672
R546 VTAIL.n380 VTAIL.n379 0.155672
R547 VTAIL.n380 VTAIL.n355 0.155672
R548 VTAIL.n389 VTAIL.n355 0.155672
R549 VTAIL.n390 VTAIL.n389 0.155672
R550 VTAIL.n390 VTAIL.n351 0.155672
R551 VTAIL.n397 VTAIL.n351 0.155672
R552 VTAIL.n21 VTAIL.n13 0.155672
R553 VTAIL.n22 VTAIL.n21 0.155672
R554 VTAIL.n22 VTAIL.n9 0.155672
R555 VTAIL.n29 VTAIL.n9 0.155672
R556 VTAIL.n30 VTAIL.n29 0.155672
R557 VTAIL.n30 VTAIL.n5 0.155672
R558 VTAIL.n39 VTAIL.n5 0.155672
R559 VTAIL.n40 VTAIL.n39 0.155672
R560 VTAIL.n40 VTAIL.n1 0.155672
R561 VTAIL.n47 VTAIL.n1 0.155672
R562 VTAIL.n71 VTAIL.n63 0.155672
R563 VTAIL.n72 VTAIL.n71 0.155672
R564 VTAIL.n72 VTAIL.n59 0.155672
R565 VTAIL.n79 VTAIL.n59 0.155672
R566 VTAIL.n80 VTAIL.n79 0.155672
R567 VTAIL.n80 VTAIL.n55 0.155672
R568 VTAIL.n89 VTAIL.n55 0.155672
R569 VTAIL.n90 VTAIL.n89 0.155672
R570 VTAIL.n90 VTAIL.n51 0.155672
R571 VTAIL.n97 VTAIL.n51 0.155672
R572 VTAIL.n121 VTAIL.n113 0.155672
R573 VTAIL.n122 VTAIL.n121 0.155672
R574 VTAIL.n122 VTAIL.n109 0.155672
R575 VTAIL.n129 VTAIL.n109 0.155672
R576 VTAIL.n130 VTAIL.n129 0.155672
R577 VTAIL.n130 VTAIL.n105 0.155672
R578 VTAIL.n139 VTAIL.n105 0.155672
R579 VTAIL.n140 VTAIL.n139 0.155672
R580 VTAIL.n140 VTAIL.n101 0.155672
R581 VTAIL.n147 VTAIL.n101 0.155672
R582 VTAIL.n347 VTAIL.n301 0.155672
R583 VTAIL.n340 VTAIL.n301 0.155672
R584 VTAIL.n340 VTAIL.n339 0.155672
R585 VTAIL.n339 VTAIL.n305 0.155672
R586 VTAIL.n332 VTAIL.n305 0.155672
R587 VTAIL.n332 VTAIL.n331 0.155672
R588 VTAIL.n331 VTAIL.n311 0.155672
R589 VTAIL.n324 VTAIL.n311 0.155672
R590 VTAIL.n324 VTAIL.n323 0.155672
R591 VTAIL.n323 VTAIL.n315 0.155672
R592 VTAIL.n297 VTAIL.n251 0.155672
R593 VTAIL.n290 VTAIL.n251 0.155672
R594 VTAIL.n290 VTAIL.n289 0.155672
R595 VTAIL.n289 VTAIL.n255 0.155672
R596 VTAIL.n282 VTAIL.n255 0.155672
R597 VTAIL.n282 VTAIL.n281 0.155672
R598 VTAIL.n281 VTAIL.n261 0.155672
R599 VTAIL.n274 VTAIL.n261 0.155672
R600 VTAIL.n274 VTAIL.n273 0.155672
R601 VTAIL.n273 VTAIL.n265 0.155672
R602 VTAIL.n247 VTAIL.n201 0.155672
R603 VTAIL.n240 VTAIL.n201 0.155672
R604 VTAIL.n240 VTAIL.n239 0.155672
R605 VTAIL.n239 VTAIL.n205 0.155672
R606 VTAIL.n232 VTAIL.n205 0.155672
R607 VTAIL.n232 VTAIL.n231 0.155672
R608 VTAIL.n231 VTAIL.n211 0.155672
R609 VTAIL.n224 VTAIL.n211 0.155672
R610 VTAIL.n224 VTAIL.n223 0.155672
R611 VTAIL.n223 VTAIL.n215 0.155672
R612 VTAIL.n197 VTAIL.n151 0.155672
R613 VTAIL.n190 VTAIL.n151 0.155672
R614 VTAIL.n190 VTAIL.n189 0.155672
R615 VTAIL.n189 VTAIL.n155 0.155672
R616 VTAIL.n182 VTAIL.n155 0.155672
R617 VTAIL.n182 VTAIL.n181 0.155672
R618 VTAIL.n181 VTAIL.n161 0.155672
R619 VTAIL.n174 VTAIL.n161 0.155672
R620 VTAIL.n174 VTAIL.n173 0.155672
R621 VTAIL.n173 VTAIL.n165 0.155672
R622 B.n762 B.n761 585
R623 B.n763 B.n762 585
R624 B.n280 B.n123 585
R625 B.n279 B.n278 585
R626 B.n277 B.n276 585
R627 B.n275 B.n274 585
R628 B.n273 B.n272 585
R629 B.n271 B.n270 585
R630 B.n269 B.n268 585
R631 B.n267 B.n266 585
R632 B.n265 B.n264 585
R633 B.n263 B.n262 585
R634 B.n261 B.n260 585
R635 B.n259 B.n258 585
R636 B.n257 B.n256 585
R637 B.n255 B.n254 585
R638 B.n253 B.n252 585
R639 B.n251 B.n250 585
R640 B.n249 B.n248 585
R641 B.n247 B.n246 585
R642 B.n245 B.n244 585
R643 B.n243 B.n242 585
R644 B.n241 B.n240 585
R645 B.n239 B.n238 585
R646 B.n237 B.n236 585
R647 B.n235 B.n234 585
R648 B.n233 B.n232 585
R649 B.n231 B.n230 585
R650 B.n229 B.n228 585
R651 B.n227 B.n226 585
R652 B.n225 B.n224 585
R653 B.n223 B.n222 585
R654 B.n221 B.n220 585
R655 B.n219 B.n218 585
R656 B.n217 B.n216 585
R657 B.n214 B.n213 585
R658 B.n212 B.n211 585
R659 B.n210 B.n209 585
R660 B.n208 B.n207 585
R661 B.n206 B.n205 585
R662 B.n204 B.n203 585
R663 B.n202 B.n201 585
R664 B.n200 B.n199 585
R665 B.n198 B.n197 585
R666 B.n196 B.n195 585
R667 B.n194 B.n193 585
R668 B.n192 B.n191 585
R669 B.n190 B.n189 585
R670 B.n188 B.n187 585
R671 B.n186 B.n185 585
R672 B.n184 B.n183 585
R673 B.n182 B.n181 585
R674 B.n180 B.n179 585
R675 B.n178 B.n177 585
R676 B.n176 B.n175 585
R677 B.n174 B.n173 585
R678 B.n172 B.n171 585
R679 B.n170 B.n169 585
R680 B.n168 B.n167 585
R681 B.n166 B.n165 585
R682 B.n164 B.n163 585
R683 B.n162 B.n161 585
R684 B.n160 B.n159 585
R685 B.n158 B.n157 585
R686 B.n156 B.n155 585
R687 B.n154 B.n153 585
R688 B.n152 B.n151 585
R689 B.n150 B.n149 585
R690 B.n148 B.n147 585
R691 B.n146 B.n145 585
R692 B.n144 B.n143 585
R693 B.n142 B.n141 585
R694 B.n140 B.n139 585
R695 B.n138 B.n137 585
R696 B.n136 B.n135 585
R697 B.n134 B.n133 585
R698 B.n132 B.n131 585
R699 B.n130 B.n129 585
R700 B.n760 B.n84 585
R701 B.n764 B.n84 585
R702 B.n759 B.n83 585
R703 B.n765 B.n83 585
R704 B.n758 B.n757 585
R705 B.n757 B.n79 585
R706 B.n756 B.n78 585
R707 B.n771 B.n78 585
R708 B.n755 B.n77 585
R709 B.n772 B.n77 585
R710 B.n754 B.n76 585
R711 B.n773 B.n76 585
R712 B.n753 B.n752 585
R713 B.n752 B.n72 585
R714 B.n751 B.n71 585
R715 B.n779 B.n71 585
R716 B.n750 B.n70 585
R717 B.n780 B.n70 585
R718 B.n749 B.n69 585
R719 B.n781 B.n69 585
R720 B.n748 B.n747 585
R721 B.n747 B.n65 585
R722 B.n746 B.n64 585
R723 B.n787 B.n64 585
R724 B.n745 B.n63 585
R725 B.n788 B.n63 585
R726 B.n744 B.n62 585
R727 B.n789 B.n62 585
R728 B.n743 B.n742 585
R729 B.n742 B.n58 585
R730 B.n741 B.n57 585
R731 B.n795 B.n57 585
R732 B.n740 B.n56 585
R733 B.n796 B.n56 585
R734 B.n739 B.n55 585
R735 B.n797 B.n55 585
R736 B.n738 B.n737 585
R737 B.n737 B.n51 585
R738 B.n736 B.n50 585
R739 B.n803 B.n50 585
R740 B.n735 B.n49 585
R741 B.n804 B.n49 585
R742 B.n734 B.n48 585
R743 B.n805 B.n48 585
R744 B.n733 B.n732 585
R745 B.n732 B.n44 585
R746 B.n731 B.n43 585
R747 B.n811 B.n43 585
R748 B.n730 B.n42 585
R749 B.n812 B.n42 585
R750 B.n729 B.n41 585
R751 B.n813 B.n41 585
R752 B.n728 B.n727 585
R753 B.n727 B.n37 585
R754 B.n726 B.n36 585
R755 B.n819 B.n36 585
R756 B.n725 B.n35 585
R757 B.n820 B.n35 585
R758 B.n724 B.n34 585
R759 B.n821 B.n34 585
R760 B.n723 B.n722 585
R761 B.n722 B.n30 585
R762 B.n721 B.n29 585
R763 B.n827 B.n29 585
R764 B.n720 B.n28 585
R765 B.n828 B.n28 585
R766 B.n719 B.n27 585
R767 B.n829 B.n27 585
R768 B.n718 B.n717 585
R769 B.n717 B.n23 585
R770 B.n716 B.n22 585
R771 B.n835 B.n22 585
R772 B.n715 B.n21 585
R773 B.n836 B.n21 585
R774 B.n714 B.n20 585
R775 B.n837 B.n20 585
R776 B.n713 B.n712 585
R777 B.n712 B.n16 585
R778 B.n711 B.n15 585
R779 B.n843 B.n15 585
R780 B.n710 B.n14 585
R781 B.n844 B.n14 585
R782 B.n709 B.n13 585
R783 B.n845 B.n13 585
R784 B.n708 B.n707 585
R785 B.n707 B.n12 585
R786 B.n706 B.n705 585
R787 B.n706 B.n8 585
R788 B.n704 B.n7 585
R789 B.n852 B.n7 585
R790 B.n703 B.n6 585
R791 B.n853 B.n6 585
R792 B.n702 B.n5 585
R793 B.n854 B.n5 585
R794 B.n701 B.n700 585
R795 B.n700 B.n4 585
R796 B.n699 B.n281 585
R797 B.n699 B.n698 585
R798 B.n689 B.n282 585
R799 B.n283 B.n282 585
R800 B.n691 B.n690 585
R801 B.n692 B.n691 585
R802 B.n688 B.n288 585
R803 B.n288 B.n287 585
R804 B.n687 B.n686 585
R805 B.n686 B.n685 585
R806 B.n290 B.n289 585
R807 B.n291 B.n290 585
R808 B.n678 B.n677 585
R809 B.n679 B.n678 585
R810 B.n676 B.n296 585
R811 B.n296 B.n295 585
R812 B.n675 B.n674 585
R813 B.n674 B.n673 585
R814 B.n298 B.n297 585
R815 B.n299 B.n298 585
R816 B.n666 B.n665 585
R817 B.n667 B.n666 585
R818 B.n664 B.n304 585
R819 B.n304 B.n303 585
R820 B.n663 B.n662 585
R821 B.n662 B.n661 585
R822 B.n306 B.n305 585
R823 B.n307 B.n306 585
R824 B.n654 B.n653 585
R825 B.n655 B.n654 585
R826 B.n652 B.n312 585
R827 B.n312 B.n311 585
R828 B.n651 B.n650 585
R829 B.n650 B.n649 585
R830 B.n314 B.n313 585
R831 B.n315 B.n314 585
R832 B.n642 B.n641 585
R833 B.n643 B.n642 585
R834 B.n640 B.n320 585
R835 B.n320 B.n319 585
R836 B.n639 B.n638 585
R837 B.n638 B.n637 585
R838 B.n322 B.n321 585
R839 B.n323 B.n322 585
R840 B.n630 B.n629 585
R841 B.n631 B.n630 585
R842 B.n628 B.n328 585
R843 B.n328 B.n327 585
R844 B.n627 B.n626 585
R845 B.n626 B.n625 585
R846 B.n330 B.n329 585
R847 B.n331 B.n330 585
R848 B.n618 B.n617 585
R849 B.n619 B.n618 585
R850 B.n616 B.n336 585
R851 B.n336 B.n335 585
R852 B.n615 B.n614 585
R853 B.n614 B.n613 585
R854 B.n338 B.n337 585
R855 B.n339 B.n338 585
R856 B.n606 B.n605 585
R857 B.n607 B.n606 585
R858 B.n604 B.n344 585
R859 B.n344 B.n343 585
R860 B.n603 B.n602 585
R861 B.n602 B.n601 585
R862 B.n346 B.n345 585
R863 B.n347 B.n346 585
R864 B.n594 B.n593 585
R865 B.n595 B.n594 585
R866 B.n592 B.n352 585
R867 B.n352 B.n351 585
R868 B.n591 B.n590 585
R869 B.n590 B.n589 585
R870 B.n354 B.n353 585
R871 B.n355 B.n354 585
R872 B.n582 B.n581 585
R873 B.n583 B.n582 585
R874 B.n580 B.n360 585
R875 B.n360 B.n359 585
R876 B.n579 B.n578 585
R877 B.n578 B.n577 585
R878 B.n362 B.n361 585
R879 B.n363 B.n362 585
R880 B.n570 B.n569 585
R881 B.n571 B.n570 585
R882 B.n568 B.n368 585
R883 B.n368 B.n367 585
R884 B.n562 B.n561 585
R885 B.n560 B.n408 585
R886 B.n559 B.n407 585
R887 B.n564 B.n407 585
R888 B.n558 B.n557 585
R889 B.n556 B.n555 585
R890 B.n554 B.n553 585
R891 B.n552 B.n551 585
R892 B.n550 B.n549 585
R893 B.n548 B.n547 585
R894 B.n546 B.n545 585
R895 B.n544 B.n543 585
R896 B.n542 B.n541 585
R897 B.n540 B.n539 585
R898 B.n538 B.n537 585
R899 B.n536 B.n535 585
R900 B.n534 B.n533 585
R901 B.n532 B.n531 585
R902 B.n530 B.n529 585
R903 B.n528 B.n527 585
R904 B.n526 B.n525 585
R905 B.n524 B.n523 585
R906 B.n522 B.n521 585
R907 B.n520 B.n519 585
R908 B.n518 B.n517 585
R909 B.n516 B.n515 585
R910 B.n514 B.n513 585
R911 B.n512 B.n511 585
R912 B.n510 B.n509 585
R913 B.n508 B.n507 585
R914 B.n506 B.n505 585
R915 B.n504 B.n503 585
R916 B.n502 B.n501 585
R917 B.n500 B.n499 585
R918 B.n498 B.n497 585
R919 B.n495 B.n494 585
R920 B.n493 B.n492 585
R921 B.n491 B.n490 585
R922 B.n489 B.n488 585
R923 B.n487 B.n486 585
R924 B.n485 B.n484 585
R925 B.n483 B.n482 585
R926 B.n481 B.n480 585
R927 B.n479 B.n478 585
R928 B.n477 B.n476 585
R929 B.n475 B.n474 585
R930 B.n473 B.n472 585
R931 B.n471 B.n470 585
R932 B.n469 B.n468 585
R933 B.n467 B.n466 585
R934 B.n465 B.n464 585
R935 B.n463 B.n462 585
R936 B.n461 B.n460 585
R937 B.n459 B.n458 585
R938 B.n457 B.n456 585
R939 B.n455 B.n454 585
R940 B.n453 B.n452 585
R941 B.n451 B.n450 585
R942 B.n449 B.n448 585
R943 B.n447 B.n446 585
R944 B.n445 B.n444 585
R945 B.n443 B.n442 585
R946 B.n441 B.n440 585
R947 B.n439 B.n438 585
R948 B.n437 B.n436 585
R949 B.n435 B.n434 585
R950 B.n433 B.n432 585
R951 B.n431 B.n430 585
R952 B.n429 B.n428 585
R953 B.n427 B.n426 585
R954 B.n425 B.n424 585
R955 B.n423 B.n422 585
R956 B.n421 B.n420 585
R957 B.n419 B.n418 585
R958 B.n417 B.n416 585
R959 B.n415 B.n414 585
R960 B.n370 B.n369 585
R961 B.n567 B.n566 585
R962 B.n366 B.n365 585
R963 B.n367 B.n366 585
R964 B.n573 B.n572 585
R965 B.n572 B.n571 585
R966 B.n574 B.n364 585
R967 B.n364 B.n363 585