* NGSPICE file created from diff_pair_sample_1756.ext - technology: sky130A

.subckt diff_pair_sample_1756 VTAIL VN VP B VDD2 VDD1
X0 VTAIL.t7 VP.t0 VDD1.t2 B.t2 sky130_fd_pr__nfet_01v8 ad=6.8679 pd=36 as=2.90565 ps=17.94 w=17.61 l=2.84
X1 VDD1.t1 VP.t1 VTAIL.t6 B.t1 sky130_fd_pr__nfet_01v8 ad=2.90565 pd=17.94 as=6.8679 ps=36 w=17.61 l=2.84
X2 B.t17 B.t15 B.t16 B.t9 sky130_fd_pr__nfet_01v8 ad=6.8679 pd=36 as=0 ps=0 w=17.61 l=2.84
X3 VDD1.t3 VP.t2 VTAIL.t5 B.t3 sky130_fd_pr__nfet_01v8 ad=2.90565 pd=17.94 as=6.8679 ps=36 w=17.61 l=2.84
X4 B.t14 B.t12 B.t13 B.t5 sky130_fd_pr__nfet_01v8 ad=6.8679 pd=36 as=0 ps=0 w=17.61 l=2.84
X5 B.t11 B.t8 B.t10 B.t9 sky130_fd_pr__nfet_01v8 ad=6.8679 pd=36 as=0 ps=0 w=17.61 l=2.84
X6 VDD2.t3 VN.t0 VTAIL.t3 B.t3 sky130_fd_pr__nfet_01v8 ad=2.90565 pd=17.94 as=6.8679 ps=36 w=17.61 l=2.84
X7 VTAIL.t2 VN.t1 VDD2.t2 B.t2 sky130_fd_pr__nfet_01v8 ad=6.8679 pd=36 as=2.90565 ps=17.94 w=17.61 l=2.84
X8 VTAIL.t0 VN.t2 VDD2.t1 B.t0 sky130_fd_pr__nfet_01v8 ad=6.8679 pd=36 as=2.90565 ps=17.94 w=17.61 l=2.84
X9 B.t7 B.t4 B.t6 B.t5 sky130_fd_pr__nfet_01v8 ad=6.8679 pd=36 as=0 ps=0 w=17.61 l=2.84
X10 VTAIL.t4 VP.t3 VDD1.t0 B.t0 sky130_fd_pr__nfet_01v8 ad=6.8679 pd=36 as=2.90565 ps=17.94 w=17.61 l=2.84
X11 VDD2.t0 VN.t3 VTAIL.t1 B.t1 sky130_fd_pr__nfet_01v8 ad=2.90565 pd=17.94 as=6.8679 ps=36 w=17.61 l=2.84
R0 VP.n4 VP.t0 184.751
R1 VP.n4 VP.t1 183.856
R2 VP.n16 VP.n0 161.3
R3 VP.n15 VP.n14 161.3
R4 VP.n13 VP.n1 161.3
R5 VP.n12 VP.n11 161.3
R6 VP.n10 VP.n2 161.3
R7 VP.n9 VP.n8 161.3
R8 VP.n7 VP.n3 161.3
R9 VP.n5 VP.t3 149.438
R10 VP.n17 VP.t2 149.438
R11 VP.n6 VP.n5 106.597
R12 VP.n18 VP.n17 106.597
R13 VP.n6 VP.n4 54.7515
R14 VP.n11 VP.n10 40.4934
R15 VP.n11 VP.n1 40.4934
R16 VP.n9 VP.n3 24.4675
R17 VP.n10 VP.n9 24.4675
R18 VP.n15 VP.n1 24.4675
R19 VP.n16 VP.n15 24.4675
R20 VP.n5 VP.n3 4.15989
R21 VP.n17 VP.n16 4.15989
R22 VP.n7 VP.n6 0.278367
R23 VP.n18 VP.n0 0.278367
R24 VP.n8 VP.n7 0.189894
R25 VP.n8 VP.n2 0.189894
R26 VP.n12 VP.n2 0.189894
R27 VP.n13 VP.n12 0.189894
R28 VP.n14 VP.n13 0.189894
R29 VP.n14 VP.n0 0.189894
R30 VP VP.n18 0.153454
R31 VDD1 VDD1.n1 110.046
R32 VDD1 VDD1.n0 62.4856
R33 VDD1.n0 VDD1.t2 1.12486
R34 VDD1.n0 VDD1.t1 1.12486
R35 VDD1.n1 VDD1.t0 1.12486
R36 VDD1.n1 VDD1.t3 1.12486
R37 VTAIL.n778 VTAIL.n686 289.615
R38 VTAIL.n92 VTAIL.n0 289.615
R39 VTAIL.n190 VTAIL.n98 289.615
R40 VTAIL.n288 VTAIL.n196 289.615
R41 VTAIL.n680 VTAIL.n588 289.615
R42 VTAIL.n582 VTAIL.n490 289.615
R43 VTAIL.n484 VTAIL.n392 289.615
R44 VTAIL.n386 VTAIL.n294 289.615
R45 VTAIL.n719 VTAIL.n718 185
R46 VTAIL.n721 VTAIL.n720 185
R47 VTAIL.n714 VTAIL.n713 185
R48 VTAIL.n727 VTAIL.n726 185
R49 VTAIL.n729 VTAIL.n728 185
R50 VTAIL.n710 VTAIL.n709 185
R51 VTAIL.n735 VTAIL.n734 185
R52 VTAIL.n737 VTAIL.n736 185
R53 VTAIL.n706 VTAIL.n705 185
R54 VTAIL.n743 VTAIL.n742 185
R55 VTAIL.n745 VTAIL.n744 185
R56 VTAIL.n702 VTAIL.n701 185
R57 VTAIL.n751 VTAIL.n750 185
R58 VTAIL.n753 VTAIL.n752 185
R59 VTAIL.n698 VTAIL.n697 185
R60 VTAIL.n760 VTAIL.n759 185
R61 VTAIL.n761 VTAIL.n696 185
R62 VTAIL.n763 VTAIL.n762 185
R63 VTAIL.n694 VTAIL.n693 185
R64 VTAIL.n769 VTAIL.n768 185
R65 VTAIL.n771 VTAIL.n770 185
R66 VTAIL.n690 VTAIL.n689 185
R67 VTAIL.n777 VTAIL.n776 185
R68 VTAIL.n779 VTAIL.n778 185
R69 VTAIL.n33 VTAIL.n32 185
R70 VTAIL.n35 VTAIL.n34 185
R71 VTAIL.n28 VTAIL.n27 185
R72 VTAIL.n41 VTAIL.n40 185
R73 VTAIL.n43 VTAIL.n42 185
R74 VTAIL.n24 VTAIL.n23 185
R75 VTAIL.n49 VTAIL.n48 185
R76 VTAIL.n51 VTAIL.n50 185
R77 VTAIL.n20 VTAIL.n19 185
R78 VTAIL.n57 VTAIL.n56 185
R79 VTAIL.n59 VTAIL.n58 185
R80 VTAIL.n16 VTAIL.n15 185
R81 VTAIL.n65 VTAIL.n64 185
R82 VTAIL.n67 VTAIL.n66 185
R83 VTAIL.n12 VTAIL.n11 185
R84 VTAIL.n74 VTAIL.n73 185
R85 VTAIL.n75 VTAIL.n10 185
R86 VTAIL.n77 VTAIL.n76 185
R87 VTAIL.n8 VTAIL.n7 185
R88 VTAIL.n83 VTAIL.n82 185
R89 VTAIL.n85 VTAIL.n84 185
R90 VTAIL.n4 VTAIL.n3 185
R91 VTAIL.n91 VTAIL.n90 185
R92 VTAIL.n93 VTAIL.n92 185
R93 VTAIL.n131 VTAIL.n130 185
R94 VTAIL.n133 VTAIL.n132 185
R95 VTAIL.n126 VTAIL.n125 185
R96 VTAIL.n139 VTAIL.n138 185
R97 VTAIL.n141 VTAIL.n140 185
R98 VTAIL.n122 VTAIL.n121 185
R99 VTAIL.n147 VTAIL.n146 185
R100 VTAIL.n149 VTAIL.n148 185
R101 VTAIL.n118 VTAIL.n117 185
R102 VTAIL.n155 VTAIL.n154 185
R103 VTAIL.n157 VTAIL.n156 185
R104 VTAIL.n114 VTAIL.n113 185
R105 VTAIL.n163 VTAIL.n162 185
R106 VTAIL.n165 VTAIL.n164 185
R107 VTAIL.n110 VTAIL.n109 185
R108 VTAIL.n172 VTAIL.n171 185
R109 VTAIL.n173 VTAIL.n108 185
R110 VTAIL.n175 VTAIL.n174 185
R111 VTAIL.n106 VTAIL.n105 185
R112 VTAIL.n181 VTAIL.n180 185
R113 VTAIL.n183 VTAIL.n182 185
R114 VTAIL.n102 VTAIL.n101 185
R115 VTAIL.n189 VTAIL.n188 185
R116 VTAIL.n191 VTAIL.n190 185
R117 VTAIL.n229 VTAIL.n228 185
R118 VTAIL.n231 VTAIL.n230 185
R119 VTAIL.n224 VTAIL.n223 185
R120 VTAIL.n237 VTAIL.n236 185
R121 VTAIL.n239 VTAIL.n238 185
R122 VTAIL.n220 VTAIL.n219 185
R123 VTAIL.n245 VTAIL.n244 185
R124 VTAIL.n247 VTAIL.n246 185
R125 VTAIL.n216 VTAIL.n215 185
R126 VTAIL.n253 VTAIL.n252 185
R127 VTAIL.n255 VTAIL.n254 185
R128 VTAIL.n212 VTAIL.n211 185
R129 VTAIL.n261 VTAIL.n260 185
R130 VTAIL.n263 VTAIL.n262 185
R131 VTAIL.n208 VTAIL.n207 185
R132 VTAIL.n270 VTAIL.n269 185
R133 VTAIL.n271 VTAIL.n206 185
R134 VTAIL.n273 VTAIL.n272 185
R135 VTAIL.n204 VTAIL.n203 185
R136 VTAIL.n279 VTAIL.n278 185
R137 VTAIL.n281 VTAIL.n280 185
R138 VTAIL.n200 VTAIL.n199 185
R139 VTAIL.n287 VTAIL.n286 185
R140 VTAIL.n289 VTAIL.n288 185
R141 VTAIL.n681 VTAIL.n680 185
R142 VTAIL.n679 VTAIL.n678 185
R143 VTAIL.n592 VTAIL.n591 185
R144 VTAIL.n673 VTAIL.n672 185
R145 VTAIL.n671 VTAIL.n670 185
R146 VTAIL.n596 VTAIL.n595 185
R147 VTAIL.n600 VTAIL.n598 185
R148 VTAIL.n665 VTAIL.n664 185
R149 VTAIL.n663 VTAIL.n662 185
R150 VTAIL.n602 VTAIL.n601 185
R151 VTAIL.n657 VTAIL.n656 185
R152 VTAIL.n655 VTAIL.n654 185
R153 VTAIL.n606 VTAIL.n605 185
R154 VTAIL.n649 VTAIL.n648 185
R155 VTAIL.n647 VTAIL.n646 185
R156 VTAIL.n610 VTAIL.n609 185
R157 VTAIL.n641 VTAIL.n640 185
R158 VTAIL.n639 VTAIL.n638 185
R159 VTAIL.n614 VTAIL.n613 185
R160 VTAIL.n633 VTAIL.n632 185
R161 VTAIL.n631 VTAIL.n630 185
R162 VTAIL.n618 VTAIL.n617 185
R163 VTAIL.n625 VTAIL.n624 185
R164 VTAIL.n623 VTAIL.n622 185
R165 VTAIL.n583 VTAIL.n582 185
R166 VTAIL.n581 VTAIL.n580 185
R167 VTAIL.n494 VTAIL.n493 185
R168 VTAIL.n575 VTAIL.n574 185
R169 VTAIL.n573 VTAIL.n572 185
R170 VTAIL.n498 VTAIL.n497 185
R171 VTAIL.n502 VTAIL.n500 185
R172 VTAIL.n567 VTAIL.n566 185
R173 VTAIL.n565 VTAIL.n564 185
R174 VTAIL.n504 VTAIL.n503 185
R175 VTAIL.n559 VTAIL.n558 185
R176 VTAIL.n557 VTAIL.n556 185
R177 VTAIL.n508 VTAIL.n507 185
R178 VTAIL.n551 VTAIL.n550 185
R179 VTAIL.n549 VTAIL.n548 185
R180 VTAIL.n512 VTAIL.n511 185
R181 VTAIL.n543 VTAIL.n542 185
R182 VTAIL.n541 VTAIL.n540 185
R183 VTAIL.n516 VTAIL.n515 185
R184 VTAIL.n535 VTAIL.n534 185
R185 VTAIL.n533 VTAIL.n532 185
R186 VTAIL.n520 VTAIL.n519 185
R187 VTAIL.n527 VTAIL.n526 185
R188 VTAIL.n525 VTAIL.n524 185
R189 VTAIL.n485 VTAIL.n484 185
R190 VTAIL.n483 VTAIL.n482 185
R191 VTAIL.n396 VTAIL.n395 185
R192 VTAIL.n477 VTAIL.n476 185
R193 VTAIL.n475 VTAIL.n474 185
R194 VTAIL.n400 VTAIL.n399 185
R195 VTAIL.n404 VTAIL.n402 185
R196 VTAIL.n469 VTAIL.n468 185
R197 VTAIL.n467 VTAIL.n466 185
R198 VTAIL.n406 VTAIL.n405 185
R199 VTAIL.n461 VTAIL.n460 185
R200 VTAIL.n459 VTAIL.n458 185
R201 VTAIL.n410 VTAIL.n409 185
R202 VTAIL.n453 VTAIL.n452 185
R203 VTAIL.n451 VTAIL.n450 185
R204 VTAIL.n414 VTAIL.n413 185
R205 VTAIL.n445 VTAIL.n444 185
R206 VTAIL.n443 VTAIL.n442 185
R207 VTAIL.n418 VTAIL.n417 185
R208 VTAIL.n437 VTAIL.n436 185
R209 VTAIL.n435 VTAIL.n434 185
R210 VTAIL.n422 VTAIL.n421 185
R211 VTAIL.n429 VTAIL.n428 185
R212 VTAIL.n427 VTAIL.n426 185
R213 VTAIL.n387 VTAIL.n386 185
R214 VTAIL.n385 VTAIL.n384 185
R215 VTAIL.n298 VTAIL.n297 185
R216 VTAIL.n379 VTAIL.n378 185
R217 VTAIL.n377 VTAIL.n376 185
R218 VTAIL.n302 VTAIL.n301 185
R219 VTAIL.n306 VTAIL.n304 185
R220 VTAIL.n371 VTAIL.n370 185
R221 VTAIL.n369 VTAIL.n368 185
R222 VTAIL.n308 VTAIL.n307 185
R223 VTAIL.n363 VTAIL.n362 185
R224 VTAIL.n361 VTAIL.n360 185
R225 VTAIL.n312 VTAIL.n311 185
R226 VTAIL.n355 VTAIL.n354 185
R227 VTAIL.n353 VTAIL.n352 185
R228 VTAIL.n316 VTAIL.n315 185
R229 VTAIL.n347 VTAIL.n346 185
R230 VTAIL.n345 VTAIL.n344 185
R231 VTAIL.n320 VTAIL.n319 185
R232 VTAIL.n339 VTAIL.n338 185
R233 VTAIL.n337 VTAIL.n336 185
R234 VTAIL.n324 VTAIL.n323 185
R235 VTAIL.n331 VTAIL.n330 185
R236 VTAIL.n329 VTAIL.n328 185
R237 VTAIL.n717 VTAIL.t1 147.659
R238 VTAIL.n31 VTAIL.t2 147.659
R239 VTAIL.n129 VTAIL.t5 147.659
R240 VTAIL.n227 VTAIL.t4 147.659
R241 VTAIL.n621 VTAIL.t6 147.659
R242 VTAIL.n523 VTAIL.t7 147.659
R243 VTAIL.n425 VTAIL.t3 147.659
R244 VTAIL.n327 VTAIL.t0 147.659
R245 VTAIL.n720 VTAIL.n719 104.615
R246 VTAIL.n720 VTAIL.n713 104.615
R247 VTAIL.n727 VTAIL.n713 104.615
R248 VTAIL.n728 VTAIL.n727 104.615
R249 VTAIL.n728 VTAIL.n709 104.615
R250 VTAIL.n735 VTAIL.n709 104.615
R251 VTAIL.n736 VTAIL.n735 104.615
R252 VTAIL.n736 VTAIL.n705 104.615
R253 VTAIL.n743 VTAIL.n705 104.615
R254 VTAIL.n744 VTAIL.n743 104.615
R255 VTAIL.n744 VTAIL.n701 104.615
R256 VTAIL.n751 VTAIL.n701 104.615
R257 VTAIL.n752 VTAIL.n751 104.615
R258 VTAIL.n752 VTAIL.n697 104.615
R259 VTAIL.n760 VTAIL.n697 104.615
R260 VTAIL.n761 VTAIL.n760 104.615
R261 VTAIL.n762 VTAIL.n761 104.615
R262 VTAIL.n762 VTAIL.n693 104.615
R263 VTAIL.n769 VTAIL.n693 104.615
R264 VTAIL.n770 VTAIL.n769 104.615
R265 VTAIL.n770 VTAIL.n689 104.615
R266 VTAIL.n777 VTAIL.n689 104.615
R267 VTAIL.n778 VTAIL.n777 104.615
R268 VTAIL.n34 VTAIL.n33 104.615
R269 VTAIL.n34 VTAIL.n27 104.615
R270 VTAIL.n41 VTAIL.n27 104.615
R271 VTAIL.n42 VTAIL.n41 104.615
R272 VTAIL.n42 VTAIL.n23 104.615
R273 VTAIL.n49 VTAIL.n23 104.615
R274 VTAIL.n50 VTAIL.n49 104.615
R275 VTAIL.n50 VTAIL.n19 104.615
R276 VTAIL.n57 VTAIL.n19 104.615
R277 VTAIL.n58 VTAIL.n57 104.615
R278 VTAIL.n58 VTAIL.n15 104.615
R279 VTAIL.n65 VTAIL.n15 104.615
R280 VTAIL.n66 VTAIL.n65 104.615
R281 VTAIL.n66 VTAIL.n11 104.615
R282 VTAIL.n74 VTAIL.n11 104.615
R283 VTAIL.n75 VTAIL.n74 104.615
R284 VTAIL.n76 VTAIL.n75 104.615
R285 VTAIL.n76 VTAIL.n7 104.615
R286 VTAIL.n83 VTAIL.n7 104.615
R287 VTAIL.n84 VTAIL.n83 104.615
R288 VTAIL.n84 VTAIL.n3 104.615
R289 VTAIL.n91 VTAIL.n3 104.615
R290 VTAIL.n92 VTAIL.n91 104.615
R291 VTAIL.n132 VTAIL.n131 104.615
R292 VTAIL.n132 VTAIL.n125 104.615
R293 VTAIL.n139 VTAIL.n125 104.615
R294 VTAIL.n140 VTAIL.n139 104.615
R295 VTAIL.n140 VTAIL.n121 104.615
R296 VTAIL.n147 VTAIL.n121 104.615
R297 VTAIL.n148 VTAIL.n147 104.615
R298 VTAIL.n148 VTAIL.n117 104.615
R299 VTAIL.n155 VTAIL.n117 104.615
R300 VTAIL.n156 VTAIL.n155 104.615
R301 VTAIL.n156 VTAIL.n113 104.615
R302 VTAIL.n163 VTAIL.n113 104.615
R303 VTAIL.n164 VTAIL.n163 104.615
R304 VTAIL.n164 VTAIL.n109 104.615
R305 VTAIL.n172 VTAIL.n109 104.615
R306 VTAIL.n173 VTAIL.n172 104.615
R307 VTAIL.n174 VTAIL.n173 104.615
R308 VTAIL.n174 VTAIL.n105 104.615
R309 VTAIL.n181 VTAIL.n105 104.615
R310 VTAIL.n182 VTAIL.n181 104.615
R311 VTAIL.n182 VTAIL.n101 104.615
R312 VTAIL.n189 VTAIL.n101 104.615
R313 VTAIL.n190 VTAIL.n189 104.615
R314 VTAIL.n230 VTAIL.n229 104.615
R315 VTAIL.n230 VTAIL.n223 104.615
R316 VTAIL.n237 VTAIL.n223 104.615
R317 VTAIL.n238 VTAIL.n237 104.615
R318 VTAIL.n238 VTAIL.n219 104.615
R319 VTAIL.n245 VTAIL.n219 104.615
R320 VTAIL.n246 VTAIL.n245 104.615
R321 VTAIL.n246 VTAIL.n215 104.615
R322 VTAIL.n253 VTAIL.n215 104.615
R323 VTAIL.n254 VTAIL.n253 104.615
R324 VTAIL.n254 VTAIL.n211 104.615
R325 VTAIL.n261 VTAIL.n211 104.615
R326 VTAIL.n262 VTAIL.n261 104.615
R327 VTAIL.n262 VTAIL.n207 104.615
R328 VTAIL.n270 VTAIL.n207 104.615
R329 VTAIL.n271 VTAIL.n270 104.615
R330 VTAIL.n272 VTAIL.n271 104.615
R331 VTAIL.n272 VTAIL.n203 104.615
R332 VTAIL.n279 VTAIL.n203 104.615
R333 VTAIL.n280 VTAIL.n279 104.615
R334 VTAIL.n280 VTAIL.n199 104.615
R335 VTAIL.n287 VTAIL.n199 104.615
R336 VTAIL.n288 VTAIL.n287 104.615
R337 VTAIL.n680 VTAIL.n679 104.615
R338 VTAIL.n679 VTAIL.n591 104.615
R339 VTAIL.n672 VTAIL.n591 104.615
R340 VTAIL.n672 VTAIL.n671 104.615
R341 VTAIL.n671 VTAIL.n595 104.615
R342 VTAIL.n600 VTAIL.n595 104.615
R343 VTAIL.n664 VTAIL.n600 104.615
R344 VTAIL.n664 VTAIL.n663 104.615
R345 VTAIL.n663 VTAIL.n601 104.615
R346 VTAIL.n656 VTAIL.n601 104.615
R347 VTAIL.n656 VTAIL.n655 104.615
R348 VTAIL.n655 VTAIL.n605 104.615
R349 VTAIL.n648 VTAIL.n605 104.615
R350 VTAIL.n648 VTAIL.n647 104.615
R351 VTAIL.n647 VTAIL.n609 104.615
R352 VTAIL.n640 VTAIL.n609 104.615
R353 VTAIL.n640 VTAIL.n639 104.615
R354 VTAIL.n639 VTAIL.n613 104.615
R355 VTAIL.n632 VTAIL.n613 104.615
R356 VTAIL.n632 VTAIL.n631 104.615
R357 VTAIL.n631 VTAIL.n617 104.615
R358 VTAIL.n624 VTAIL.n617 104.615
R359 VTAIL.n624 VTAIL.n623 104.615
R360 VTAIL.n582 VTAIL.n581 104.615
R361 VTAIL.n581 VTAIL.n493 104.615
R362 VTAIL.n574 VTAIL.n493 104.615
R363 VTAIL.n574 VTAIL.n573 104.615
R364 VTAIL.n573 VTAIL.n497 104.615
R365 VTAIL.n502 VTAIL.n497 104.615
R366 VTAIL.n566 VTAIL.n502 104.615
R367 VTAIL.n566 VTAIL.n565 104.615
R368 VTAIL.n565 VTAIL.n503 104.615
R369 VTAIL.n558 VTAIL.n503 104.615
R370 VTAIL.n558 VTAIL.n557 104.615
R371 VTAIL.n557 VTAIL.n507 104.615
R372 VTAIL.n550 VTAIL.n507 104.615
R373 VTAIL.n550 VTAIL.n549 104.615
R374 VTAIL.n549 VTAIL.n511 104.615
R375 VTAIL.n542 VTAIL.n511 104.615
R376 VTAIL.n542 VTAIL.n541 104.615
R377 VTAIL.n541 VTAIL.n515 104.615
R378 VTAIL.n534 VTAIL.n515 104.615
R379 VTAIL.n534 VTAIL.n533 104.615
R380 VTAIL.n533 VTAIL.n519 104.615
R381 VTAIL.n526 VTAIL.n519 104.615
R382 VTAIL.n526 VTAIL.n525 104.615
R383 VTAIL.n484 VTAIL.n483 104.615
R384 VTAIL.n483 VTAIL.n395 104.615
R385 VTAIL.n476 VTAIL.n395 104.615
R386 VTAIL.n476 VTAIL.n475 104.615
R387 VTAIL.n475 VTAIL.n399 104.615
R388 VTAIL.n404 VTAIL.n399 104.615
R389 VTAIL.n468 VTAIL.n404 104.615
R390 VTAIL.n468 VTAIL.n467 104.615
R391 VTAIL.n467 VTAIL.n405 104.615
R392 VTAIL.n460 VTAIL.n405 104.615
R393 VTAIL.n460 VTAIL.n459 104.615
R394 VTAIL.n459 VTAIL.n409 104.615
R395 VTAIL.n452 VTAIL.n409 104.615
R396 VTAIL.n452 VTAIL.n451 104.615
R397 VTAIL.n451 VTAIL.n413 104.615
R398 VTAIL.n444 VTAIL.n413 104.615
R399 VTAIL.n444 VTAIL.n443 104.615
R400 VTAIL.n443 VTAIL.n417 104.615
R401 VTAIL.n436 VTAIL.n417 104.615
R402 VTAIL.n436 VTAIL.n435 104.615
R403 VTAIL.n435 VTAIL.n421 104.615
R404 VTAIL.n428 VTAIL.n421 104.615
R405 VTAIL.n428 VTAIL.n427 104.615
R406 VTAIL.n386 VTAIL.n385 104.615
R407 VTAIL.n385 VTAIL.n297 104.615
R408 VTAIL.n378 VTAIL.n297 104.615
R409 VTAIL.n378 VTAIL.n377 104.615
R410 VTAIL.n377 VTAIL.n301 104.615
R411 VTAIL.n306 VTAIL.n301 104.615
R412 VTAIL.n370 VTAIL.n306 104.615
R413 VTAIL.n370 VTAIL.n369 104.615
R414 VTAIL.n369 VTAIL.n307 104.615
R415 VTAIL.n362 VTAIL.n307 104.615
R416 VTAIL.n362 VTAIL.n361 104.615
R417 VTAIL.n361 VTAIL.n311 104.615
R418 VTAIL.n354 VTAIL.n311 104.615
R419 VTAIL.n354 VTAIL.n353 104.615
R420 VTAIL.n353 VTAIL.n315 104.615
R421 VTAIL.n346 VTAIL.n315 104.615
R422 VTAIL.n346 VTAIL.n345 104.615
R423 VTAIL.n345 VTAIL.n319 104.615
R424 VTAIL.n338 VTAIL.n319 104.615
R425 VTAIL.n338 VTAIL.n337 104.615
R426 VTAIL.n337 VTAIL.n323 104.615
R427 VTAIL.n330 VTAIL.n323 104.615
R428 VTAIL.n330 VTAIL.n329 104.615
R429 VTAIL.n719 VTAIL.t1 52.3082
R430 VTAIL.n33 VTAIL.t2 52.3082
R431 VTAIL.n131 VTAIL.t5 52.3082
R432 VTAIL.n229 VTAIL.t4 52.3082
R433 VTAIL.n623 VTAIL.t6 52.3082
R434 VTAIL.n525 VTAIL.t7 52.3082
R435 VTAIL.n427 VTAIL.t3 52.3082
R436 VTAIL.n329 VTAIL.t0 52.3082
R437 VTAIL.n783 VTAIL.n782 33.9308
R438 VTAIL.n97 VTAIL.n96 33.9308
R439 VTAIL.n195 VTAIL.n194 33.9308
R440 VTAIL.n293 VTAIL.n292 33.9308
R441 VTAIL.n685 VTAIL.n684 33.9308
R442 VTAIL.n587 VTAIL.n586 33.9308
R443 VTAIL.n489 VTAIL.n488 33.9308
R444 VTAIL.n391 VTAIL.n390 33.9308
R445 VTAIL.n783 VTAIL.n685 30.2807
R446 VTAIL.n391 VTAIL.n293 30.2807
R447 VTAIL.n718 VTAIL.n717 15.6677
R448 VTAIL.n32 VTAIL.n31 15.6677
R449 VTAIL.n130 VTAIL.n129 15.6677
R450 VTAIL.n228 VTAIL.n227 15.6677
R451 VTAIL.n622 VTAIL.n621 15.6677
R452 VTAIL.n524 VTAIL.n523 15.6677
R453 VTAIL.n426 VTAIL.n425 15.6677
R454 VTAIL.n328 VTAIL.n327 15.6677
R455 VTAIL.n763 VTAIL.n694 13.1884
R456 VTAIL.n77 VTAIL.n8 13.1884
R457 VTAIL.n175 VTAIL.n106 13.1884
R458 VTAIL.n273 VTAIL.n204 13.1884
R459 VTAIL.n598 VTAIL.n596 13.1884
R460 VTAIL.n500 VTAIL.n498 13.1884
R461 VTAIL.n402 VTAIL.n400 13.1884
R462 VTAIL.n304 VTAIL.n302 13.1884
R463 VTAIL.n721 VTAIL.n716 12.8005
R464 VTAIL.n764 VTAIL.n696 12.8005
R465 VTAIL.n768 VTAIL.n767 12.8005
R466 VTAIL.n35 VTAIL.n30 12.8005
R467 VTAIL.n78 VTAIL.n10 12.8005
R468 VTAIL.n82 VTAIL.n81 12.8005
R469 VTAIL.n133 VTAIL.n128 12.8005
R470 VTAIL.n176 VTAIL.n108 12.8005
R471 VTAIL.n180 VTAIL.n179 12.8005
R472 VTAIL.n231 VTAIL.n226 12.8005
R473 VTAIL.n274 VTAIL.n206 12.8005
R474 VTAIL.n278 VTAIL.n277 12.8005
R475 VTAIL.n670 VTAIL.n669 12.8005
R476 VTAIL.n666 VTAIL.n665 12.8005
R477 VTAIL.n625 VTAIL.n620 12.8005
R478 VTAIL.n572 VTAIL.n571 12.8005
R479 VTAIL.n568 VTAIL.n567 12.8005
R480 VTAIL.n527 VTAIL.n522 12.8005
R481 VTAIL.n474 VTAIL.n473 12.8005
R482 VTAIL.n470 VTAIL.n469 12.8005
R483 VTAIL.n429 VTAIL.n424 12.8005
R484 VTAIL.n376 VTAIL.n375 12.8005
R485 VTAIL.n372 VTAIL.n371 12.8005
R486 VTAIL.n331 VTAIL.n326 12.8005
R487 VTAIL.n722 VTAIL.n714 12.0247
R488 VTAIL.n759 VTAIL.n758 12.0247
R489 VTAIL.n771 VTAIL.n692 12.0247
R490 VTAIL.n36 VTAIL.n28 12.0247
R491 VTAIL.n73 VTAIL.n72 12.0247
R492 VTAIL.n85 VTAIL.n6 12.0247
R493 VTAIL.n134 VTAIL.n126 12.0247
R494 VTAIL.n171 VTAIL.n170 12.0247
R495 VTAIL.n183 VTAIL.n104 12.0247
R496 VTAIL.n232 VTAIL.n224 12.0247
R497 VTAIL.n269 VTAIL.n268 12.0247
R498 VTAIL.n281 VTAIL.n202 12.0247
R499 VTAIL.n673 VTAIL.n594 12.0247
R500 VTAIL.n662 VTAIL.n599 12.0247
R501 VTAIL.n626 VTAIL.n618 12.0247
R502 VTAIL.n575 VTAIL.n496 12.0247
R503 VTAIL.n564 VTAIL.n501 12.0247
R504 VTAIL.n528 VTAIL.n520 12.0247
R505 VTAIL.n477 VTAIL.n398 12.0247
R506 VTAIL.n466 VTAIL.n403 12.0247
R507 VTAIL.n430 VTAIL.n422 12.0247
R508 VTAIL.n379 VTAIL.n300 12.0247
R509 VTAIL.n368 VTAIL.n305 12.0247
R510 VTAIL.n332 VTAIL.n324 12.0247
R511 VTAIL.n726 VTAIL.n725 11.249
R512 VTAIL.n757 VTAIL.n698 11.249
R513 VTAIL.n772 VTAIL.n690 11.249
R514 VTAIL.n40 VTAIL.n39 11.249
R515 VTAIL.n71 VTAIL.n12 11.249
R516 VTAIL.n86 VTAIL.n4 11.249
R517 VTAIL.n138 VTAIL.n137 11.249
R518 VTAIL.n169 VTAIL.n110 11.249
R519 VTAIL.n184 VTAIL.n102 11.249
R520 VTAIL.n236 VTAIL.n235 11.249
R521 VTAIL.n267 VTAIL.n208 11.249
R522 VTAIL.n282 VTAIL.n200 11.249
R523 VTAIL.n674 VTAIL.n592 11.249
R524 VTAIL.n661 VTAIL.n602 11.249
R525 VTAIL.n630 VTAIL.n629 11.249
R526 VTAIL.n576 VTAIL.n494 11.249
R527 VTAIL.n563 VTAIL.n504 11.249
R528 VTAIL.n532 VTAIL.n531 11.249
R529 VTAIL.n478 VTAIL.n396 11.249
R530 VTAIL.n465 VTAIL.n406 11.249
R531 VTAIL.n434 VTAIL.n433 11.249
R532 VTAIL.n380 VTAIL.n298 11.249
R533 VTAIL.n367 VTAIL.n308 11.249
R534 VTAIL.n336 VTAIL.n335 11.249
R535 VTAIL.n729 VTAIL.n712 10.4732
R536 VTAIL.n754 VTAIL.n753 10.4732
R537 VTAIL.n776 VTAIL.n775 10.4732
R538 VTAIL.n43 VTAIL.n26 10.4732
R539 VTAIL.n68 VTAIL.n67 10.4732
R540 VTAIL.n90 VTAIL.n89 10.4732
R541 VTAIL.n141 VTAIL.n124 10.4732
R542 VTAIL.n166 VTAIL.n165 10.4732
R543 VTAIL.n188 VTAIL.n187 10.4732
R544 VTAIL.n239 VTAIL.n222 10.4732
R545 VTAIL.n264 VTAIL.n263 10.4732
R546 VTAIL.n286 VTAIL.n285 10.4732
R547 VTAIL.n678 VTAIL.n677 10.4732
R548 VTAIL.n658 VTAIL.n657 10.4732
R549 VTAIL.n633 VTAIL.n616 10.4732
R550 VTAIL.n580 VTAIL.n579 10.4732
R551 VTAIL.n560 VTAIL.n559 10.4732
R552 VTAIL.n535 VTAIL.n518 10.4732
R553 VTAIL.n482 VTAIL.n481 10.4732
R554 VTAIL.n462 VTAIL.n461 10.4732
R555 VTAIL.n437 VTAIL.n420 10.4732
R556 VTAIL.n384 VTAIL.n383 10.4732
R557 VTAIL.n364 VTAIL.n363 10.4732
R558 VTAIL.n339 VTAIL.n322 10.4732
R559 VTAIL.n730 VTAIL.n710 9.69747
R560 VTAIL.n750 VTAIL.n700 9.69747
R561 VTAIL.n779 VTAIL.n688 9.69747
R562 VTAIL.n44 VTAIL.n24 9.69747
R563 VTAIL.n64 VTAIL.n14 9.69747
R564 VTAIL.n93 VTAIL.n2 9.69747
R565 VTAIL.n142 VTAIL.n122 9.69747
R566 VTAIL.n162 VTAIL.n112 9.69747
R567 VTAIL.n191 VTAIL.n100 9.69747
R568 VTAIL.n240 VTAIL.n220 9.69747
R569 VTAIL.n260 VTAIL.n210 9.69747
R570 VTAIL.n289 VTAIL.n198 9.69747
R571 VTAIL.n681 VTAIL.n590 9.69747
R572 VTAIL.n654 VTAIL.n604 9.69747
R573 VTAIL.n634 VTAIL.n614 9.69747
R574 VTAIL.n583 VTAIL.n492 9.69747
R575 VTAIL.n556 VTAIL.n506 9.69747
R576 VTAIL.n536 VTAIL.n516 9.69747
R577 VTAIL.n485 VTAIL.n394 9.69747
R578 VTAIL.n458 VTAIL.n408 9.69747
R579 VTAIL.n438 VTAIL.n418 9.69747
R580 VTAIL.n387 VTAIL.n296 9.69747
R581 VTAIL.n360 VTAIL.n310 9.69747
R582 VTAIL.n340 VTAIL.n320 9.69747
R583 VTAIL.n782 VTAIL.n781 9.45567
R584 VTAIL.n96 VTAIL.n95 9.45567
R585 VTAIL.n194 VTAIL.n193 9.45567
R586 VTAIL.n292 VTAIL.n291 9.45567
R587 VTAIL.n684 VTAIL.n683 9.45567
R588 VTAIL.n586 VTAIL.n585 9.45567
R589 VTAIL.n488 VTAIL.n487 9.45567
R590 VTAIL.n390 VTAIL.n389 9.45567
R591 VTAIL.n781 VTAIL.n780 9.3005
R592 VTAIL.n688 VTAIL.n687 9.3005
R593 VTAIL.n775 VTAIL.n774 9.3005
R594 VTAIL.n773 VTAIL.n772 9.3005
R595 VTAIL.n692 VTAIL.n691 9.3005
R596 VTAIL.n767 VTAIL.n766 9.3005
R597 VTAIL.n739 VTAIL.n738 9.3005
R598 VTAIL.n708 VTAIL.n707 9.3005
R599 VTAIL.n733 VTAIL.n732 9.3005
R600 VTAIL.n731 VTAIL.n730 9.3005
R601 VTAIL.n712 VTAIL.n711 9.3005
R602 VTAIL.n725 VTAIL.n724 9.3005
R603 VTAIL.n723 VTAIL.n722 9.3005
R604 VTAIL.n716 VTAIL.n715 9.3005
R605 VTAIL.n741 VTAIL.n740 9.3005
R606 VTAIL.n704 VTAIL.n703 9.3005
R607 VTAIL.n747 VTAIL.n746 9.3005
R608 VTAIL.n749 VTAIL.n748 9.3005
R609 VTAIL.n700 VTAIL.n699 9.3005
R610 VTAIL.n755 VTAIL.n754 9.3005
R611 VTAIL.n757 VTAIL.n756 9.3005
R612 VTAIL.n758 VTAIL.n695 9.3005
R613 VTAIL.n765 VTAIL.n764 9.3005
R614 VTAIL.n95 VTAIL.n94 9.3005
R615 VTAIL.n2 VTAIL.n1 9.3005
R616 VTAIL.n89 VTAIL.n88 9.3005
R617 VTAIL.n87 VTAIL.n86 9.3005
R618 VTAIL.n6 VTAIL.n5 9.3005
R619 VTAIL.n81 VTAIL.n80 9.3005
R620 VTAIL.n53 VTAIL.n52 9.3005
R621 VTAIL.n22 VTAIL.n21 9.3005
R622 VTAIL.n47 VTAIL.n46 9.3005
R623 VTAIL.n45 VTAIL.n44 9.3005
R624 VTAIL.n26 VTAIL.n25 9.3005
R625 VTAIL.n39 VTAIL.n38 9.3005
R626 VTAIL.n37 VTAIL.n36 9.3005
R627 VTAIL.n30 VTAIL.n29 9.3005
R628 VTAIL.n55 VTAIL.n54 9.3005
R629 VTAIL.n18 VTAIL.n17 9.3005
R630 VTAIL.n61 VTAIL.n60 9.3005
R631 VTAIL.n63 VTAIL.n62 9.3005
R632 VTAIL.n14 VTAIL.n13 9.3005
R633 VTAIL.n69 VTAIL.n68 9.3005
R634 VTAIL.n71 VTAIL.n70 9.3005
R635 VTAIL.n72 VTAIL.n9 9.3005
R636 VTAIL.n79 VTAIL.n78 9.3005
R637 VTAIL.n193 VTAIL.n192 9.3005
R638 VTAIL.n100 VTAIL.n99 9.3005
R639 VTAIL.n187 VTAIL.n186 9.3005
R640 VTAIL.n185 VTAIL.n184 9.3005
R641 VTAIL.n104 VTAIL.n103 9.3005
R642 VTAIL.n179 VTAIL.n178 9.3005
R643 VTAIL.n151 VTAIL.n150 9.3005
R644 VTAIL.n120 VTAIL.n119 9.3005
R645 VTAIL.n145 VTAIL.n144 9.3005
R646 VTAIL.n143 VTAIL.n142 9.3005
R647 VTAIL.n124 VTAIL.n123 9.3005
R648 VTAIL.n137 VTAIL.n136 9.3005
R649 VTAIL.n135 VTAIL.n134 9.3005
R650 VTAIL.n128 VTAIL.n127 9.3005
R651 VTAIL.n153 VTAIL.n152 9.3005
R652 VTAIL.n116 VTAIL.n115 9.3005
R653 VTAIL.n159 VTAIL.n158 9.3005
R654 VTAIL.n161 VTAIL.n160 9.3005
R655 VTAIL.n112 VTAIL.n111 9.3005
R656 VTAIL.n167 VTAIL.n166 9.3005
R657 VTAIL.n169 VTAIL.n168 9.3005
R658 VTAIL.n170 VTAIL.n107 9.3005
R659 VTAIL.n177 VTAIL.n176 9.3005
R660 VTAIL.n291 VTAIL.n290 9.3005
R661 VTAIL.n198 VTAIL.n197 9.3005
R662 VTAIL.n285 VTAIL.n284 9.3005
R663 VTAIL.n283 VTAIL.n282 9.3005
R664 VTAIL.n202 VTAIL.n201 9.3005
R665 VTAIL.n277 VTAIL.n276 9.3005
R666 VTAIL.n249 VTAIL.n248 9.3005
R667 VTAIL.n218 VTAIL.n217 9.3005
R668 VTAIL.n243 VTAIL.n242 9.3005
R669 VTAIL.n241 VTAIL.n240 9.3005
R670 VTAIL.n222 VTAIL.n221 9.3005
R671 VTAIL.n235 VTAIL.n234 9.3005
R672 VTAIL.n233 VTAIL.n232 9.3005
R673 VTAIL.n226 VTAIL.n225 9.3005
R674 VTAIL.n251 VTAIL.n250 9.3005
R675 VTAIL.n214 VTAIL.n213 9.3005
R676 VTAIL.n257 VTAIL.n256 9.3005
R677 VTAIL.n259 VTAIL.n258 9.3005
R678 VTAIL.n210 VTAIL.n209 9.3005
R679 VTAIL.n265 VTAIL.n264 9.3005
R680 VTAIL.n267 VTAIL.n266 9.3005
R681 VTAIL.n268 VTAIL.n205 9.3005
R682 VTAIL.n275 VTAIL.n274 9.3005
R683 VTAIL.n608 VTAIL.n607 9.3005
R684 VTAIL.n651 VTAIL.n650 9.3005
R685 VTAIL.n653 VTAIL.n652 9.3005
R686 VTAIL.n604 VTAIL.n603 9.3005
R687 VTAIL.n659 VTAIL.n658 9.3005
R688 VTAIL.n661 VTAIL.n660 9.3005
R689 VTAIL.n599 VTAIL.n597 9.3005
R690 VTAIL.n667 VTAIL.n666 9.3005
R691 VTAIL.n683 VTAIL.n682 9.3005
R692 VTAIL.n590 VTAIL.n589 9.3005
R693 VTAIL.n677 VTAIL.n676 9.3005
R694 VTAIL.n675 VTAIL.n674 9.3005
R695 VTAIL.n594 VTAIL.n593 9.3005
R696 VTAIL.n669 VTAIL.n668 9.3005
R697 VTAIL.n645 VTAIL.n644 9.3005
R698 VTAIL.n643 VTAIL.n642 9.3005
R699 VTAIL.n612 VTAIL.n611 9.3005
R700 VTAIL.n637 VTAIL.n636 9.3005
R701 VTAIL.n635 VTAIL.n634 9.3005
R702 VTAIL.n616 VTAIL.n615 9.3005
R703 VTAIL.n629 VTAIL.n628 9.3005
R704 VTAIL.n627 VTAIL.n626 9.3005
R705 VTAIL.n620 VTAIL.n619 9.3005
R706 VTAIL.n510 VTAIL.n509 9.3005
R707 VTAIL.n553 VTAIL.n552 9.3005
R708 VTAIL.n555 VTAIL.n554 9.3005
R709 VTAIL.n506 VTAIL.n505 9.3005
R710 VTAIL.n561 VTAIL.n560 9.3005
R711 VTAIL.n563 VTAIL.n562 9.3005
R712 VTAIL.n501 VTAIL.n499 9.3005
R713 VTAIL.n569 VTAIL.n568 9.3005
R714 VTAIL.n585 VTAIL.n584 9.3005
R715 VTAIL.n492 VTAIL.n491 9.3005
R716 VTAIL.n579 VTAIL.n578 9.3005
R717 VTAIL.n577 VTAIL.n576 9.3005
R718 VTAIL.n496 VTAIL.n495 9.3005
R719 VTAIL.n571 VTAIL.n570 9.3005
R720 VTAIL.n547 VTAIL.n546 9.3005
R721 VTAIL.n545 VTAIL.n544 9.3005
R722 VTAIL.n514 VTAIL.n513 9.3005
R723 VTAIL.n539 VTAIL.n538 9.3005
R724 VTAIL.n537 VTAIL.n536 9.3005
R725 VTAIL.n518 VTAIL.n517 9.3005
R726 VTAIL.n531 VTAIL.n530 9.3005
R727 VTAIL.n529 VTAIL.n528 9.3005
R728 VTAIL.n522 VTAIL.n521 9.3005
R729 VTAIL.n412 VTAIL.n411 9.3005
R730 VTAIL.n455 VTAIL.n454 9.3005
R731 VTAIL.n457 VTAIL.n456 9.3005
R732 VTAIL.n408 VTAIL.n407 9.3005
R733 VTAIL.n463 VTAIL.n462 9.3005
R734 VTAIL.n465 VTAIL.n464 9.3005
R735 VTAIL.n403 VTAIL.n401 9.3005
R736 VTAIL.n471 VTAIL.n470 9.3005
R737 VTAIL.n487 VTAIL.n486 9.3005
R738 VTAIL.n394 VTAIL.n393 9.3005
R739 VTAIL.n481 VTAIL.n480 9.3005
R740 VTAIL.n479 VTAIL.n478 9.3005
R741 VTAIL.n398 VTAIL.n397 9.3005
R742 VTAIL.n473 VTAIL.n472 9.3005
R743 VTAIL.n449 VTAIL.n448 9.3005
R744 VTAIL.n447 VTAIL.n446 9.3005
R745 VTAIL.n416 VTAIL.n415 9.3005
R746 VTAIL.n441 VTAIL.n440 9.3005
R747 VTAIL.n439 VTAIL.n438 9.3005
R748 VTAIL.n420 VTAIL.n419 9.3005
R749 VTAIL.n433 VTAIL.n432 9.3005
R750 VTAIL.n431 VTAIL.n430 9.3005
R751 VTAIL.n424 VTAIL.n423 9.3005
R752 VTAIL.n314 VTAIL.n313 9.3005
R753 VTAIL.n357 VTAIL.n356 9.3005
R754 VTAIL.n359 VTAIL.n358 9.3005
R755 VTAIL.n310 VTAIL.n309 9.3005
R756 VTAIL.n365 VTAIL.n364 9.3005
R757 VTAIL.n367 VTAIL.n366 9.3005
R758 VTAIL.n305 VTAIL.n303 9.3005
R759 VTAIL.n373 VTAIL.n372 9.3005
R760 VTAIL.n389 VTAIL.n388 9.3005
R761 VTAIL.n296 VTAIL.n295 9.3005
R762 VTAIL.n383 VTAIL.n382 9.3005
R763 VTAIL.n381 VTAIL.n380 9.3005
R764 VTAIL.n300 VTAIL.n299 9.3005
R765 VTAIL.n375 VTAIL.n374 9.3005
R766 VTAIL.n351 VTAIL.n350 9.3005
R767 VTAIL.n349 VTAIL.n348 9.3005
R768 VTAIL.n318 VTAIL.n317 9.3005
R769 VTAIL.n343 VTAIL.n342 9.3005
R770 VTAIL.n341 VTAIL.n340 9.3005
R771 VTAIL.n322 VTAIL.n321 9.3005
R772 VTAIL.n335 VTAIL.n334 9.3005
R773 VTAIL.n333 VTAIL.n332 9.3005
R774 VTAIL.n326 VTAIL.n325 9.3005
R775 VTAIL.n734 VTAIL.n733 8.92171
R776 VTAIL.n749 VTAIL.n702 8.92171
R777 VTAIL.n780 VTAIL.n686 8.92171
R778 VTAIL.n48 VTAIL.n47 8.92171
R779 VTAIL.n63 VTAIL.n16 8.92171
R780 VTAIL.n94 VTAIL.n0 8.92171
R781 VTAIL.n146 VTAIL.n145 8.92171
R782 VTAIL.n161 VTAIL.n114 8.92171
R783 VTAIL.n192 VTAIL.n98 8.92171
R784 VTAIL.n244 VTAIL.n243 8.92171
R785 VTAIL.n259 VTAIL.n212 8.92171
R786 VTAIL.n290 VTAIL.n196 8.92171
R787 VTAIL.n682 VTAIL.n588 8.92171
R788 VTAIL.n653 VTAIL.n606 8.92171
R789 VTAIL.n638 VTAIL.n637 8.92171
R790 VTAIL.n584 VTAIL.n490 8.92171
R791 VTAIL.n555 VTAIL.n508 8.92171
R792 VTAIL.n540 VTAIL.n539 8.92171
R793 VTAIL.n486 VTAIL.n392 8.92171
R794 VTAIL.n457 VTAIL.n410 8.92171
R795 VTAIL.n442 VTAIL.n441 8.92171
R796 VTAIL.n388 VTAIL.n294 8.92171
R797 VTAIL.n359 VTAIL.n312 8.92171
R798 VTAIL.n344 VTAIL.n343 8.92171
R799 VTAIL.n737 VTAIL.n708 8.14595
R800 VTAIL.n746 VTAIL.n745 8.14595
R801 VTAIL.n51 VTAIL.n22 8.14595
R802 VTAIL.n60 VTAIL.n59 8.14595
R803 VTAIL.n149 VTAIL.n120 8.14595
R804 VTAIL.n158 VTAIL.n157 8.14595
R805 VTAIL.n247 VTAIL.n218 8.14595
R806 VTAIL.n256 VTAIL.n255 8.14595
R807 VTAIL.n650 VTAIL.n649 8.14595
R808 VTAIL.n641 VTAIL.n612 8.14595
R809 VTAIL.n552 VTAIL.n551 8.14595
R810 VTAIL.n543 VTAIL.n514 8.14595
R811 VTAIL.n454 VTAIL.n453 8.14595
R812 VTAIL.n445 VTAIL.n416 8.14595
R813 VTAIL.n356 VTAIL.n355 8.14595
R814 VTAIL.n347 VTAIL.n318 8.14595
R815 VTAIL.n738 VTAIL.n706 7.3702
R816 VTAIL.n742 VTAIL.n704 7.3702
R817 VTAIL.n52 VTAIL.n20 7.3702
R818 VTAIL.n56 VTAIL.n18 7.3702
R819 VTAIL.n150 VTAIL.n118 7.3702
R820 VTAIL.n154 VTAIL.n116 7.3702
R821 VTAIL.n248 VTAIL.n216 7.3702
R822 VTAIL.n252 VTAIL.n214 7.3702
R823 VTAIL.n646 VTAIL.n608 7.3702
R824 VTAIL.n642 VTAIL.n610 7.3702
R825 VTAIL.n548 VTAIL.n510 7.3702
R826 VTAIL.n544 VTAIL.n512 7.3702
R827 VTAIL.n450 VTAIL.n412 7.3702
R828 VTAIL.n446 VTAIL.n414 7.3702
R829 VTAIL.n352 VTAIL.n314 7.3702
R830 VTAIL.n348 VTAIL.n316 7.3702
R831 VTAIL.n741 VTAIL.n706 6.59444
R832 VTAIL.n742 VTAIL.n741 6.59444
R833 VTAIL.n55 VTAIL.n20 6.59444
R834 VTAIL.n56 VTAIL.n55 6.59444
R835 VTAIL.n153 VTAIL.n118 6.59444
R836 VTAIL.n154 VTAIL.n153 6.59444
R837 VTAIL.n251 VTAIL.n216 6.59444
R838 VTAIL.n252 VTAIL.n251 6.59444
R839 VTAIL.n646 VTAIL.n645 6.59444
R840 VTAIL.n645 VTAIL.n610 6.59444
R841 VTAIL.n548 VTAIL.n547 6.59444
R842 VTAIL.n547 VTAIL.n512 6.59444
R843 VTAIL.n450 VTAIL.n449 6.59444
R844 VTAIL.n449 VTAIL.n414 6.59444
R845 VTAIL.n352 VTAIL.n351 6.59444
R846 VTAIL.n351 VTAIL.n316 6.59444
R847 VTAIL.n738 VTAIL.n737 5.81868
R848 VTAIL.n745 VTAIL.n704 5.81868
R849 VTAIL.n52 VTAIL.n51 5.81868
R850 VTAIL.n59 VTAIL.n18 5.81868
R851 VTAIL.n150 VTAIL.n149 5.81868
R852 VTAIL.n157 VTAIL.n116 5.81868
R853 VTAIL.n248 VTAIL.n247 5.81868
R854 VTAIL.n255 VTAIL.n214 5.81868
R855 VTAIL.n649 VTAIL.n608 5.81868
R856 VTAIL.n642 VTAIL.n641 5.81868
R857 VTAIL.n551 VTAIL.n510 5.81868
R858 VTAIL.n544 VTAIL.n543 5.81868
R859 VTAIL.n453 VTAIL.n412 5.81868
R860 VTAIL.n446 VTAIL.n445 5.81868
R861 VTAIL.n355 VTAIL.n314 5.81868
R862 VTAIL.n348 VTAIL.n347 5.81868
R863 VTAIL.n734 VTAIL.n708 5.04292
R864 VTAIL.n746 VTAIL.n702 5.04292
R865 VTAIL.n782 VTAIL.n686 5.04292
R866 VTAIL.n48 VTAIL.n22 5.04292