* NGSPICE file created from diff_pair_sample_0698.ext - technology: sky130A

.subckt diff_pair_sample_0698 VTAIL VN VP B VDD2 VDD1
X0 VDD1.t7 VP.t0 VTAIL.t8 B.t4 sky130_fd_pr__nfet_01v8 ad=1.8678 pd=11.65 as=1.8678 ps=11.65 w=11.32 l=2.98
X1 VDD2.t7 VN.t0 VTAIL.t3 B.t3 sky130_fd_pr__nfet_01v8 ad=1.8678 pd=11.65 as=1.8678 ps=11.65 w=11.32 l=2.98
X2 VDD1.t6 VP.t1 VTAIL.t12 B.t3 sky130_fd_pr__nfet_01v8 ad=1.8678 pd=11.65 as=1.8678 ps=11.65 w=11.32 l=2.98
X3 VTAIL.t13 VP.t2 VDD1.t5 B.t0 sky130_fd_pr__nfet_01v8 ad=4.4148 pd=23.42 as=1.8678 ps=11.65 w=11.32 l=2.98
X4 VTAIL.t2 VN.t1 VDD2.t6 B.t2 sky130_fd_pr__nfet_01v8 ad=4.4148 pd=23.42 as=1.8678 ps=11.65 w=11.32 l=2.98
X5 VDD1.t4 VP.t3 VTAIL.t10 B.t1 sky130_fd_pr__nfet_01v8 ad=1.8678 pd=11.65 as=4.4148 ps=23.42 w=11.32 l=2.98
X6 B.t21 B.t19 B.t20 B.t13 sky130_fd_pr__nfet_01v8 ad=4.4148 pd=23.42 as=0 ps=0 w=11.32 l=2.98
X7 VTAIL.t0 VN.t2 VDD2.t5 B.t0 sky130_fd_pr__nfet_01v8 ad=4.4148 pd=23.42 as=1.8678 ps=11.65 w=11.32 l=2.98
X8 VDD1.t3 VP.t4 VTAIL.t14 B.t6 sky130_fd_pr__nfet_01v8 ad=1.8678 pd=11.65 as=4.4148 ps=23.42 w=11.32 l=2.98
X9 B.t18 B.t16 B.t17 B.t9 sky130_fd_pr__nfet_01v8 ad=4.4148 pd=23.42 as=0 ps=0 w=11.32 l=2.98
X10 VDD2.t4 VN.t3 VTAIL.t1 B.t1 sky130_fd_pr__nfet_01v8 ad=1.8678 pd=11.65 as=4.4148 ps=23.42 w=11.32 l=2.98
X11 B.t15 B.t12 B.t14 B.t13 sky130_fd_pr__nfet_01v8 ad=4.4148 pd=23.42 as=0 ps=0 w=11.32 l=2.98
X12 VDD2.t3 VN.t4 VTAIL.t4 B.t4 sky130_fd_pr__nfet_01v8 ad=1.8678 pd=11.65 as=1.8678 ps=11.65 w=11.32 l=2.98
X13 VTAIL.t11 VP.t5 VDD1.t2 B.t2 sky130_fd_pr__nfet_01v8 ad=4.4148 pd=23.42 as=1.8678 ps=11.65 w=11.32 l=2.98
X14 VDD2.t2 VN.t5 VTAIL.t6 B.t6 sky130_fd_pr__nfet_01v8 ad=1.8678 pd=11.65 as=4.4148 ps=23.42 w=11.32 l=2.98
X15 VTAIL.t9 VP.t6 VDD1.t1 B.t5 sky130_fd_pr__nfet_01v8 ad=1.8678 pd=11.65 as=1.8678 ps=11.65 w=11.32 l=2.98
X16 B.t11 B.t8 B.t10 B.t9 sky130_fd_pr__nfet_01v8 ad=4.4148 pd=23.42 as=0 ps=0 w=11.32 l=2.98
X17 VTAIL.t5 VN.t6 VDD2.t1 B.t5 sky130_fd_pr__nfet_01v8 ad=1.8678 pd=11.65 as=1.8678 ps=11.65 w=11.32 l=2.98
X18 VTAIL.t15 VP.t7 VDD1.t0 B.t7 sky130_fd_pr__nfet_01v8 ad=1.8678 pd=11.65 as=1.8678 ps=11.65 w=11.32 l=2.98
X19 VTAIL.t7 VN.t7 VDD2.t0 B.t7 sky130_fd_pr__nfet_01v8 ad=1.8678 pd=11.65 as=1.8678 ps=11.65 w=11.32 l=2.98
R0 VP.n21 VP.n20 161.3
R1 VP.n22 VP.n17 161.3
R2 VP.n24 VP.n23 161.3
R3 VP.n25 VP.n16 161.3
R4 VP.n27 VP.n26 161.3
R5 VP.n28 VP.n15 161.3
R6 VP.n30 VP.n29 161.3
R7 VP.n32 VP.n14 161.3
R8 VP.n34 VP.n33 161.3
R9 VP.n35 VP.n13 161.3
R10 VP.n37 VP.n36 161.3
R11 VP.n38 VP.n12 161.3
R12 VP.n40 VP.n39 161.3
R13 VP.n73 VP.n72 161.3
R14 VP.n71 VP.n1 161.3
R15 VP.n70 VP.n69 161.3
R16 VP.n68 VP.n2 161.3
R17 VP.n67 VP.n66 161.3
R18 VP.n65 VP.n3 161.3
R19 VP.n63 VP.n62 161.3
R20 VP.n61 VP.n4 161.3
R21 VP.n60 VP.n59 161.3
R22 VP.n58 VP.n5 161.3
R23 VP.n57 VP.n56 161.3
R24 VP.n55 VP.n6 161.3
R25 VP.n54 VP.n53 161.3
R26 VP.n51 VP.n7 161.3
R27 VP.n50 VP.n49 161.3
R28 VP.n48 VP.n8 161.3
R29 VP.n47 VP.n46 161.3
R30 VP.n45 VP.n9 161.3
R31 VP.n44 VP.n43 161.3
R32 VP.n18 VP.t2 123.234
R33 VP.n10 VP.t5 91.5481
R34 VP.n52 VP.t1 91.5481
R35 VP.n64 VP.t6 91.5481
R36 VP.n0 VP.t3 91.5481
R37 VP.n11 VP.t4 91.5481
R38 VP.n31 VP.t7 91.5481
R39 VP.n19 VP.t0 91.5481
R40 VP.n42 VP.n10 67.2516
R41 VP.n74 VP.n0 67.2516
R42 VP.n41 VP.n11 67.2516
R43 VP.n19 VP.n18 66.0815
R44 VP.n46 VP.n8 56.4773
R45 VP.n70 VP.n2 56.4773
R46 VP.n37 VP.n13 56.4773
R47 VP.n42 VP.n41 52.3173
R48 VP.n58 VP.n57 40.4106
R49 VP.n59 VP.n58 40.4106
R50 VP.n26 VP.n25 40.4106
R51 VP.n25 VP.n24 40.4106
R52 VP.n45 VP.n44 24.3439
R53 VP.n46 VP.n45 24.3439
R54 VP.n50 VP.n8 24.3439
R55 VP.n51 VP.n50 24.3439
R56 VP.n53 VP.n6 24.3439
R57 VP.n57 VP.n6 24.3439
R58 VP.n59 VP.n4 24.3439
R59 VP.n63 VP.n4 24.3439
R60 VP.n66 VP.n65 24.3439
R61 VP.n66 VP.n2 24.3439
R62 VP.n71 VP.n70 24.3439
R63 VP.n72 VP.n71 24.3439
R64 VP.n38 VP.n37 24.3439
R65 VP.n39 VP.n38 24.3439
R66 VP.n26 VP.n15 24.3439
R67 VP.n30 VP.n15 24.3439
R68 VP.n33 VP.n32 24.3439
R69 VP.n33 VP.n13 24.3439
R70 VP.n20 VP.n17 24.3439
R71 VP.n24 VP.n17 24.3439
R72 VP.n44 VP.n10 22.6399
R73 VP.n72 VP.n0 22.6399
R74 VP.n39 VP.n11 22.6399
R75 VP.n52 VP.n51 16.7975
R76 VP.n65 VP.n64 16.7975
R77 VP.n32 VP.n31 16.7975
R78 VP.n53 VP.n52 7.54696
R79 VP.n64 VP.n63 7.54696
R80 VP.n31 VP.n30 7.54696
R81 VP.n20 VP.n19 7.54696
R82 VP.n21 VP.n18 5.3732
R83 VP.n41 VP.n40 0.355081
R84 VP.n43 VP.n42 0.355081
R85 VP.n74 VP.n73 0.355081
R86 VP VP.n74 0.26685
R87 VP.n22 VP.n21 0.189894
R88 VP.n23 VP.n22 0.189894
R89 VP.n23 VP.n16 0.189894
R90 VP.n27 VP.n16 0.189894
R91 VP.n28 VP.n27 0.189894
R92 VP.n29 VP.n28 0.189894
R93 VP.n29 VP.n14 0.189894
R94 VP.n34 VP.n14 0.189894
R95 VP.n35 VP.n34 0.189894
R96 VP.n36 VP.n35 0.189894
R97 VP.n36 VP.n12 0.189894
R98 VP.n40 VP.n12 0.189894
R99 VP.n43 VP.n9 0.189894
R100 VP.n47 VP.n9 0.189894
R101 VP.n48 VP.n47 0.189894
R102 VP.n49 VP.n48 0.189894
R103 VP.n49 VP.n7 0.189894
R104 VP.n54 VP.n7 0.189894
R105 VP.n55 VP.n54 0.189894
R106 VP.n56 VP.n55 0.189894
R107 VP.n56 VP.n5 0.189894
R108 VP.n60 VP.n5 0.189894
R109 VP.n61 VP.n60 0.189894
R110 VP.n62 VP.n61 0.189894
R111 VP.n62 VP.n3 0.189894
R112 VP.n67 VP.n3 0.189894
R113 VP.n68 VP.n67 0.189894
R114 VP.n69 VP.n68 0.189894
R115 VP.n69 VP.n1 0.189894
R116 VP.n73 VP.n1 0.189894
R117 VTAIL.n498 VTAIL.n442 289.615
R118 VTAIL.n58 VTAIL.n2 289.615
R119 VTAIL.n120 VTAIL.n64 289.615
R120 VTAIL.n184 VTAIL.n128 289.615
R121 VTAIL.n436 VTAIL.n380 289.615
R122 VTAIL.n372 VTAIL.n316 289.615
R123 VTAIL.n310 VTAIL.n254 289.615
R124 VTAIL.n246 VTAIL.n190 289.615
R125 VTAIL.n463 VTAIL.n462 185
R126 VTAIL.n465 VTAIL.n464 185
R127 VTAIL.n458 VTAIL.n457 185
R128 VTAIL.n471 VTAIL.n470 185
R129 VTAIL.n473 VTAIL.n472 185
R130 VTAIL.n454 VTAIL.n453 185
R131 VTAIL.n480 VTAIL.n479 185
R132 VTAIL.n481 VTAIL.n452 185
R133 VTAIL.n483 VTAIL.n482 185
R134 VTAIL.n450 VTAIL.n449 185
R135 VTAIL.n489 VTAIL.n488 185
R136 VTAIL.n491 VTAIL.n490 185
R137 VTAIL.n446 VTAIL.n445 185
R138 VTAIL.n497 VTAIL.n496 185
R139 VTAIL.n499 VTAIL.n498 185
R140 VTAIL.n23 VTAIL.n22 185
R141 VTAIL.n25 VTAIL.n24 185
R142 VTAIL.n18 VTAIL.n17 185
R143 VTAIL.n31 VTAIL.n30 185
R144 VTAIL.n33 VTAIL.n32 185
R145 VTAIL.n14 VTAIL.n13 185
R146 VTAIL.n40 VTAIL.n39 185
R147 VTAIL.n41 VTAIL.n12 185
R148 VTAIL.n43 VTAIL.n42 185
R149 VTAIL.n10 VTAIL.n9 185
R150 VTAIL.n49 VTAIL.n48 185
R151 VTAIL.n51 VTAIL.n50 185
R152 VTAIL.n6 VTAIL.n5 185
R153 VTAIL.n57 VTAIL.n56 185
R154 VTAIL.n59 VTAIL.n58 185
R155 VTAIL.n85 VTAIL.n84 185
R156 VTAIL.n87 VTAIL.n86 185
R157 VTAIL.n80 VTAIL.n79 185
R158 VTAIL.n93 VTAIL.n92 185
R159 VTAIL.n95 VTAIL.n94 185
R160 VTAIL.n76 VTAIL.n75 185
R161 VTAIL.n102 VTAIL.n101 185
R162 VTAIL.n103 VTAIL.n74 185
R163 VTAIL.n105 VTAIL.n104 185
R164 VTAIL.n72 VTAIL.n71 185
R165 VTAIL.n111 VTAIL.n110 185
R166 VTAIL.n113 VTAIL.n112 185
R167 VTAIL.n68 VTAIL.n67 185
R168 VTAIL.n119 VTAIL.n118 185
R169 VTAIL.n121 VTAIL.n120 185
R170 VTAIL.n149 VTAIL.n148 185
R171 VTAIL.n151 VTAIL.n150 185
R172 VTAIL.n144 VTAIL.n143 185
R173 VTAIL.n157 VTAIL.n156 185
R174 VTAIL.n159 VTAIL.n158 185
R175 VTAIL.n140 VTAIL.n139 185
R176 VTAIL.n166 VTAIL.n165 185
R177 VTAIL.n167 VTAIL.n138 185
R178 VTAIL.n169 VTAIL.n168 185
R179 VTAIL.n136 VTAIL.n135 185
R180 VTAIL.n175 VTAIL.n174 185
R181 VTAIL.n177 VTAIL.n176 185
R182 VTAIL.n132 VTAIL.n131 185
R183 VTAIL.n183 VTAIL.n182 185
R184 VTAIL.n185 VTAIL.n184 185
R185 VTAIL.n437 VTAIL.n436 185
R186 VTAIL.n435 VTAIL.n434 185
R187 VTAIL.n384 VTAIL.n383 185
R188 VTAIL.n429 VTAIL.n428 185
R189 VTAIL.n427 VTAIL.n426 185
R190 VTAIL.n388 VTAIL.n387 185
R191 VTAIL.n392 VTAIL.n390 185
R192 VTAIL.n421 VTAIL.n420 185
R193 VTAIL.n419 VTAIL.n418 185
R194 VTAIL.n394 VTAIL.n393 185
R195 VTAIL.n413 VTAIL.n412 185
R196 VTAIL.n411 VTAIL.n410 185
R197 VTAIL.n398 VTAIL.n397 185
R198 VTAIL.n405 VTAIL.n404 185
R199 VTAIL.n403 VTAIL.n402 185
R200 VTAIL.n373 VTAIL.n372 185
R201 VTAIL.n371 VTAIL.n370 185
R202 VTAIL.n320 VTAIL.n319 185
R203 VTAIL.n365 VTAIL.n364 185
R204 VTAIL.n363 VTAIL.n362 185
R205 VTAIL.n324 VTAIL.n323 185
R206 VTAIL.n328 VTAIL.n326 185
R207 VTAIL.n357 VTAIL.n356 185
R208 VTAIL.n355 VTAIL.n354 185
R209 VTAIL.n330 VTAIL.n329 185
R210 VTAIL.n349 VTAIL.n348 185
R211 VTAIL.n347 VTAIL.n346 185
R212 VTAIL.n334 VTAIL.n333 185
R213 VTAIL.n341 VTAIL.n340 185
R214 VTAIL.n339 VTAIL.n338 185
R215 VTAIL.n311 VTAIL.n310 185
R216 VTAIL.n309 VTAIL.n308 185
R217 VTAIL.n258 VTAIL.n257 185
R218 VTAIL.n303 VTAIL.n302 185
R219 VTAIL.n301 VTAIL.n300 185
R220 VTAIL.n262 VTAIL.n261 185
R221 VTAIL.n266 VTAIL.n264 185
R222 VTAIL.n295 VTAIL.n294 185
R223 VTAIL.n293 VTAIL.n292 185
R224 VTAIL.n268 VTAIL.n267 185
R225 VTAIL.n287 VTAIL.n286 185
R226 VTAIL.n285 VTAIL.n284 185
R227 VTAIL.n272 VTAIL.n271 185
R228 VTAIL.n279 VTAIL.n278 185
R229 VTAIL.n277 VTAIL.n276 185
R230 VTAIL.n247 VTAIL.n246 185
R231 VTAIL.n245 VTAIL.n244 185
R232 VTAIL.n194 VTAIL.n193 185
R233 VTAIL.n239 VTAIL.n238 185
R234 VTAIL.n237 VTAIL.n236 185
R235 VTAIL.n198 VTAIL.n197 185
R236 VTAIL.n202 VTAIL.n200 185
R237 VTAIL.n231 VTAIL.n230 185
R238 VTAIL.n229 VTAIL.n228 185
R239 VTAIL.n204 VTAIL.n203 185
R240 VTAIL.n223 VTAIL.n222 185
R241 VTAIL.n221 VTAIL.n220 185
R242 VTAIL.n208 VTAIL.n207 185
R243 VTAIL.n215 VTAIL.n214 185
R244 VTAIL.n213 VTAIL.n212 185
R245 VTAIL.n461 VTAIL.t6 149.524
R246 VTAIL.n21 VTAIL.t0 149.524
R247 VTAIL.n83 VTAIL.t10 149.524
R248 VTAIL.n147 VTAIL.t11 149.524
R249 VTAIL.n401 VTAIL.t14 149.524
R250 VTAIL.n337 VTAIL.t13 149.524
R251 VTAIL.n275 VTAIL.t1 149.524
R252 VTAIL.n211 VTAIL.t2 149.524
R253 VTAIL.n464 VTAIL.n463 104.615
R254 VTAIL.n464 VTAIL.n457 104.615
R255 VTAIL.n471 VTAIL.n457 104.615
R256 VTAIL.n472 VTAIL.n471 104.615
R257 VTAIL.n472 VTAIL.n453 104.615
R258 VTAIL.n480 VTAIL.n453 104.615
R259 VTAIL.n481 VTAIL.n480 104.615
R260 VTAIL.n482 VTAIL.n481 104.615
R261 VTAIL.n482 VTAIL.n449 104.615
R262 VTAIL.n489 VTAIL.n449 104.615
R263 VTAIL.n490 VTAIL.n489 104.615
R264 VTAIL.n490 VTAIL.n445 104.615
R265 VTAIL.n497 VTAIL.n445 104.615
R266 VTAIL.n498 VTAIL.n497 104.615
R267 VTAIL.n24 VTAIL.n23 104.615
R268 VTAIL.n24 VTAIL.n17 104.615
R269 VTAIL.n31 VTAIL.n17 104.615
R270 VTAIL.n32 VTAIL.n31 104.615
R271 VTAIL.n32 VTAIL.n13 104.615
R272 VTAIL.n40 VTAIL.n13 104.615
R273 VTAIL.n41 VTAIL.n40 104.615
R274 VTAIL.n42 VTAIL.n41 104.615
R275 VTAIL.n42 VTAIL.n9 104.615
R276 VTAIL.n49 VTAIL.n9 104.615
R277 VTAIL.n50 VTAIL.n49 104.615
R278 VTAIL.n50 VTAIL.n5 104.615
R279 VTAIL.n57 VTAIL.n5 104.615
R280 VTAIL.n58 VTAIL.n57 104.615
R281 VTAIL.n86 VTAIL.n85 104.615
R282 VTAIL.n86 VTAIL.n79 104.615
R283 VTAIL.n93 VTAIL.n79 104.615
R284 VTAIL.n94 VTAIL.n93 104.615
R285 VTAIL.n94 VTAIL.n75 104.615
R286 VTAIL.n102 VTAIL.n75 104.615
R287 VTAIL.n103 VTAIL.n102 104.615
R288 VTAIL.n104 VTAIL.n103 104.615
R289 VTAIL.n104 VTAIL.n71 104.615
R290 VTAIL.n111 VTAIL.n71 104.615
R291 VTAIL.n112 VTAIL.n111 104.615
R292 VTAIL.n112 VTAIL.n67 104.615
R293 VTAIL.n119 VTAIL.n67 104.615
R294 VTAIL.n120 VTAIL.n119 104.615
R295 VTAIL.n150 VTAIL.n149 104.615
R296 VTAIL.n150 VTAIL.n143 104.615
R297 VTAIL.n157 VTAIL.n143 104.615
R298 VTAIL.n158 VTAIL.n157 104.615
R299 VTAIL.n158 VTAIL.n139 104.615
R300 VTAIL.n166 VTAIL.n139 104.615
R301 VTAIL.n167 VTAIL.n166 104.615
R302 VTAIL.n168 VTAIL.n167 104.615
R303 VTAIL.n168 VTAIL.n135 104.615
R304 VTAIL.n175 VTAIL.n135 104.615
R305 VTAIL.n176 VTAIL.n175 104.615
R306 VTAIL.n176 VTAIL.n131 104.615
R307 VTAIL.n183 VTAIL.n131 104.615
R308 VTAIL.n184 VTAIL.n183 104.615
R309 VTAIL.n436 VTAIL.n435 104.615
R310 VTAIL.n435 VTAIL.n383 104.615
R311 VTAIL.n428 VTAIL.n383 104.615
R312 VTAIL.n428 VTAIL.n427 104.615
R313 VTAIL.n427 VTAIL.n387 104.615
R314 VTAIL.n392 VTAIL.n387 104.615
R315 VTAIL.n420 VTAIL.n392 104.615
R316 VTAIL.n420 VTAIL.n419 104.615
R317 VTAIL.n419 VTAIL.n393 104.615
R318 VTAIL.n412 VTAIL.n393 104.615
R319 VTAIL.n412 VTAIL.n411 104.615
R320 VTAIL.n411 VTAIL.n397 104.615
R321 VTAIL.n404 VTAIL.n397 104.615
R322 VTAIL.n404 VTAIL.n403 104.615
R323 VTAIL.n372 VTAIL.n371 104.615
R324 VTAIL.n371 VTAIL.n319 104.615
R325 VTAIL.n364 VTAIL.n319 104.615
R326 VTAIL.n364 VTAIL.n363 104.615
R327 VTAIL.n363 VTAIL.n323 104.615
R328 VTAIL.n328 VTAIL.n323 104.615
R329 VTAIL.n356 VTAIL.n328 104.615
R330 VTAIL.n356 VTAIL.n355 104.615
R331 VTAIL.n355 VTAIL.n329 104.615
R332 VTAIL.n348 VTAIL.n329 104.615
R333 VTAIL.n348 VTAIL.n347 104.615
R334 VTAIL.n347 VTAIL.n333 104.615
R335 VTAIL.n340 VTAIL.n333 104.615
R336 VTAIL.n340 VTAIL.n339 104.615
R337 VTAIL.n310 VTAIL.n309 104.615
R338 VTAIL.n309 VTAIL.n257 104.615
R339 VTAIL.n302 VTAIL.n257 104.615
R340 VTAIL.n302 VTAIL.n301 104.615
R341 VTAIL.n301 VTAIL.n261 104.615
R342 VTAIL.n266 VTAIL.n261 104.615
R343 VTAIL.n294 VTAIL.n266 104.615
R344 VTAIL.n294 VTAIL.n293 104.615
R345 VTAIL.n293 VTAIL.n267 104.615
R346 VTAIL.n286 VTAIL.n267 104.615
R347 VTAIL.n286 VTAIL.n285 104.615
R348 VTAIL.n285 VTAIL.n271 104.615
R349 VTAIL.n278 VTAIL.n271 104.615
R350 VTAIL.n278 VTAIL.n277 104.615
R351 VTAIL.n246 VTAIL.n245 104.615
R352 VTAIL.n245 VTAIL.n193 104.615
R353 VTAIL.n238 VTAIL.n193 104.615
R354 VTAIL.n238 VTAIL.n237 104.615
R355 VTAIL.n237 VTAIL.n197 104.615
R356 VTAIL.n202 VTAIL.n197 104.615
R357 VTAIL.n230 VTAIL.n202 104.615
R358 VTAIL.n230 VTAIL.n229 104.615
R359 VTAIL.n229 VTAIL.n203 104.615
R360 VTAIL.n222 VTAIL.n203 104.615
R361 VTAIL.n222 VTAIL.n221 104.615
R362 VTAIL.n221 VTAIL.n207 104.615
R363 VTAIL.n214 VTAIL.n207 104.615
R364 VTAIL.n214 VTAIL.n213 104.615
R365 VTAIL.n463 VTAIL.t6 52.3082
R366 VTAIL.n23 VTAIL.t0 52.3082
R367 VTAIL.n85 VTAIL.t10 52.3082
R368 VTAIL.n149 VTAIL.t11 52.3082
R369 VTAIL.n403 VTAIL.t14 52.3082
R370 VTAIL.n339 VTAIL.t13 52.3082
R371 VTAIL.n277 VTAIL.t1 52.3082
R372 VTAIL.n213 VTAIL.t2 52.3082
R373 VTAIL.n379 VTAIL.n378 43.8596
R374 VTAIL.n253 VTAIL.n252 43.8596
R375 VTAIL.n1 VTAIL.n0 43.8594
R376 VTAIL.n127 VTAIL.n126 43.8594
R377 VTAIL.n503 VTAIL.n502 30.6338
R378 VTAIL.n63 VTAIL.n62 30.6338
R379 VTAIL.n125 VTAIL.n124 30.6338
R380 VTAIL.n189 VTAIL.n188 30.6338
R381 VTAIL.n441 VTAIL.n440 30.6338
R382 VTAIL.n377 VTAIL.n376 30.6338
R383 VTAIL.n315 VTAIL.n314 30.6338
R384 VTAIL.n251 VTAIL.n250 30.6338
R385 VTAIL.n503 VTAIL.n441 24.9789
R386 VTAIL.n251 VTAIL.n189 24.9789
R387 VTAIL.n483 VTAIL.n450 13.1884
R388 VTAIL.n43 VTAIL.n10 13.1884
R389 VTAIL.n105 VTAIL.n72 13.1884
R390 VTAIL.n169 VTAIL.n136 13.1884
R391 VTAIL.n390 VTAIL.n388 13.1884
R392 VTAIL.n326 VTAIL.n324 13.1884
R393 VTAIL.n264 VTAIL.n262 13.1884
R394 VTAIL.n200 VTAIL.n198 13.1884
R395 VTAIL.n484 VTAIL.n452 12.8005
R396 VTAIL.n488 VTAIL.n487 12.8005
R397 VTAIL.n44 VTAIL.n12 12.8005
R398 VTAIL.n48 VTAIL.n47 12.8005
R399 VTAIL.n106 VTAIL.n74 12.8005
R400 VTAIL.n110 VTAIL.n109 12.8005
R401 VTAIL.n170 VTAIL.n138 12.8005
R402 VTAIL.n174 VTAIL.n173 12.8005
R403 VTAIL.n426 VTAIL.n425 12.8005
R404 VTAIL.n422 VTAIL.n421 12.8005
R405 VTAIL.n362 VTAIL.n361 12.8005
R406 VTAIL.n358 VTAIL.n357 12.8005
R407 VTAIL.n300 VTAIL.n299 12.8005
R408 VTAIL.n296 VTAIL.n295 12.8005
R409 VTAIL.n236 VTAIL.n235 12.8005
R410 VTAIL.n232 VTAIL.n231 12.8005
R411 VTAIL.n479 VTAIL.n478 12.0247
R412 VTAIL.n491 VTAIL.n448 12.0247
R413 VTAIL.n39 VTAIL.n38 12.0247
R414 VTAIL.n51 VTAIL.n8 12.0247
R415 VTAIL.n101 VTAIL.n100 12.0247
R416 VTAIL.n113 VTAIL.n70 12.0247
R417 VTAIL.n165 VTAIL.n164 12.0247
R418 VTAIL.n177 VTAIL.n134 12.0247
R419 VTAIL.n429 VTAIL.n386 12.0247
R420 VTAIL.n418 VTAIL.n391 12.0247
R421 VTAIL.n365 VTAIL.n322 12.0247
R422 VTAIL.n354 VTAIL.n327 12.0247
R423 VTAIL.n303 VTAIL.n260 12.0247
R424 VTAIL.n292 VTAIL.n265 12.0247
R425 VTAIL.n239 VTAIL.n196 12.0247
R426 VTAIL.n228 VTAIL.n201 12.0247
R427 VTAIL.n477 VTAIL.n454 11.249
R428 VTAIL.n492 VTAIL.n446 11.249
R429 VTAIL.n37 VTAIL.n14 11.249
R430 VTAIL.n52 VTAIL.n6 11.249
R431 VTAIL.n99 VTAIL.n76 11.249
R432 VTAIL.n114 VTAIL.n68 11.249
R433 VTAIL.n163 VTAIL.n140 11.249
R434 VTAIL.n178 VTAIL.n132 11.249
R435 VTAIL.n430 VTAIL.n384 11.249
R436 VTAIL.n417 VTAIL.n394 11.249
R437 VTAIL.n366 VTAIL.n320 11.249
R438 VTAIL.n353 VTAIL.n330 11.249
R439 VTAIL.n304 VTAIL.n258 11.249
R440 VTAIL.n291 VTAIL.n268 11.249
R441 VTAIL.n240 VTAIL.n194 11.249
R442 VTAIL.n227 VTAIL.n204 11.249
R443 VTAIL.n474 VTAIL.n473 10.4732
R444 VTAIL.n496 VTAIL.n495 10.4732
R445 VTAIL.n34 VTAIL.n33 10.4732
R446 VTAIL.n56 VTAIL.n55 10.4732
R447 VTAIL.n96 VTAIL.n95 10.4732
R448 VTAIL.n118 VTAIL.n117 10.4732
R449 VTAIL.n160 VTAIL.n159 10.4732
R450 VTAIL.n182 VTAIL.n181 10.4732
R451 VTAIL.n434 VTAIL.n433 10.4732
R452 VTAIL.n414 VTAIL.n413 10.4732
R453 VTAIL.n370 VTAIL.n369 10.4732
R454 VTAIL.n350 VTAIL.n349 10.4732
R455 VTAIL.n308 VTAIL.n307 10.4732
R456 VTAIL.n288 VTAIL.n287 10.4732
R457 VTAIL.n244 VTAIL.n243 10.4732
R458 VTAIL.n224 VTAIL.n223 10.4732
R459 VTAIL.n462 VTAIL.n461 10.2747
R460 VTAIL.n22 VTAIL.n21 10.2747
R461 VTAIL.n84 VTAIL.n83 10.2747
R462 VTAIL.n148 VTAIL.n147 10.2747
R463 VTAIL.n402 VTAIL.n401 10.2747
R464 VTAIL.n338 VTAIL.n337 10.2747
R465 VTAIL.n276 VTAIL.n275 10.2747
R466 VTAIL.n212 VTAIL.n211 10.2747
R467 VTAIL.n470 VTAIL.n456 9.69747
R468 VTAIL.n499 VTAIL.n444 9.69747
R469 VTAIL.n30 VTAIL.n16 9.69747
R470 VTAIL.n59 VTAIL.n4 9.69747
R471 VTAIL.n92 VTAIL.n78 9.69747
R472 VTAIL.n121 VTAIL.n66 9.69747
R473 VTAIL.n156 VTAIL.n142 9.69747
R474 VTAIL.n185 VTAIL.n130 9.69747
R475 VTAIL.n437 VTAIL.n382 9.69747
R476 VTAIL.n410 VTAIL.n396 9.69747
R477 VTAIL.n373 VTAIL.n318 9.69747
R478 VTAIL.n346 VTAIL.n332 9.69747
R479 VTAIL.n311 VTAIL.n256 9.69747
R480 VTAIL.n284 VTAIL.n270 9.69747
R481 VTAIL.n247 VTAIL.n192 9.69747
R482 VTAIL.n220 VTAIL.n206 9.69747
R483 VTAIL.n502 VTAIL.n501 9.45567
R484 VTAIL.n62 VTAIL.n61 9.45567
R485 VTAIL.n124 VTAIL.n123 9.45567
R486 VTAIL.n188 VTAIL.n187 9.45567
R487 VTAIL.n440 VTAIL.n439 9.45567
R488 VTAIL.n376 VTAIL.n375 9.45567
R489 VTAIL.n314 VTAIL.n313 9.45567
R490 VTAIL.n250 VTAIL.n249 9.45567
R491 VTAIL.n501 VTAIL.n500 9.3005
R492 VTAIL.n444 VTAIL.n443 9.3005
R493 VTAIL.n495 VTAIL.n494 9.3005
R494 VTAIL.n493 VTAIL.n492 9.3005
R495 VTAIL.n448 VTAIL.n447 9.3005
R496 VTAIL.n487 VTAIL.n486 9.3005
R497 VTAIL.n460 VTAIL.n459 9.3005
R498 VTAIL.n467 VTAIL.n466 9.3005
R499 VTAIL.n469 VTAIL.n468 9.3005
R500 VTAIL.n456 VTAIL.n455 9.3005
R501 VTAIL.n475 VTAIL.n474 9.3005
R502 VTAIL.n477 VTAIL.n476 9.3005
R503 VTAIL.n478 VTAIL.n451 9.3005
R504 VTAIL.n485 VTAIL.n484 9.3005
R505 VTAIL.n61 VTAIL.n60 9.3005
R506 VTAIL.n4 VTAIL.n3 9.3005
R507 VTAIL.n55 VTAIL.n54 9.3005
R508 VTAIL.n53 VTAIL.n52 9.3005
R509 VTAIL.n8 VTAIL.n7 9.3005
R510 VTAIL.n47 VTAIL.n46 9.3005
R511 VTAIL.n20 VTAIL.n19 9.3005
R512 VTAIL.n27 VTAIL.n26 9.3005
R513 VTAIL.n29 VTAIL.n28 9.3005
R514 VTAIL.n16 VTAIL.n15 9.3005
R515 VTAIL.n35 VTAIL.n34 9.3005
R516 VTAIL.n37 VTAIL.n36 9.3005
R517 VTAIL.n38 VTAIL.n11 9.3005
R518 VTAIL.n45 VTAIL.n44 9.3005
R519 VTAIL.n123 VTAIL.n122 9.3005
R520 VTAIL.n66 VTAIL.n65 9.3005
R521 VTAIL.n117 VTAIL.n116 9.3005
R522 VTAIL.n115 VTAIL.n114 9.3005
R523 VTAIL.n70 VTAIL.n69 9.3005
R524 VTAIL.n109 VTAIL.n108 9.3005
R525 VTAIL.n82 VTAIL.n81 9.3005
R526 VTAIL.n89 VTAIL.n88 9.3005
R527 VTAIL.n91 VTAIL.n90 9.3005
R528 VTAIL.n78 VTAIL.n77 9.3005
R529 VTAIL.n97 VTAIL.n96 9.3005
R530 VTAIL.n99 VTAIL.n98 9.3005
R531 VTAIL.n100 VTAIL.n73 9.3005
R532 VTAIL.n107 VTAIL.n106 9.3005
R533 VTAIL.n187 VTAIL.n186 9.3005
R534 VTAIL.n130 VTAIL.n129 9.3005
R535 VTAIL.n181 VTAIL.n180 9.3005
R536 VTAIL.n179 VTAIL.n178 9.3005
R537 VTAIL.n134 VTAIL.n133 9.3005
R538 VTAIL.n173 VTAIL.n172 9.3005
R539 VTAIL.n146 VTAIL.n145 9.3005
R540 VTAIL.n153 VTAIL.n152 9.3005
R541 VTAIL.n155 VTAIL.n154 9.3005
R542 VTAIL.n142 VTAIL.n141 9.3005
R543 VTAIL.n161 VTAIL.n160 9.3005
R544 VTAIL.n163 VTAIL.n162 9.3005
R545 VTAIL.n164 VTAIL.n137 9.3005
R546 VTAIL.n171 VTAIL.n170 9.3005
R547 VTAIL.n400 VTAIL.n399 9.3005
R548 VTAIL.n407 VTAIL.n406 9.3005
R549 VTAIL.n409 VTAIL.n408 9.3005
R550 VTAIL.n396 VTAIL.n395 9.3005
R551 VTAIL.n415 VTAIL.n414 9.3005
R552 VTAIL.n417 VTAIL.n416 9.3005
R553 VTAIL.n391 VTAIL.n389 9.3005
R554 VTAIL.n423 VTAIL.n422 9.3005
R555 VTAIL.n439 VTAIL.n438 9.3005
R556 VTAIL.n382 VTAIL.n381 9.3005
R557 VTAIL.n433 VTAIL.n432 9.3005
R558 VTAIL.n431 VTAIL.n430 9.3005
R559 VTAIL.n386 VTAIL.n385 9.3005
R560 VTAIL.n425 VTAIL.n424 9.3005
R561 VTAIL.n336 VTAIL.n335 9.3005
R562 VTAIL.n343 VTAIL.n342 9.3005
R563 VTAIL.n345 VTAIL.n344 9.3005
R564 VTAIL.n332 VTAIL.n331 9.3005
R565 VTAIL.n351 VTAIL.n350 9.3005
R566 VTAIL.n353 VTAIL.n352 9.3005
R567 VTAIL.n327 VTAIL.n325 9.3005
R568 VTAIL.n359 VTAIL.n358 9.3005
R569 VTAIL.n375 VTAIL.n374 9.3005
R570 VTAIL.n318 VTAIL.n317 9.3005
R571 VTAIL.n369 VTAIL.n368 9.3005
R572 VTAIL.n367 VTAIL.n366 9.3005
R573 VTAIL.n322 VTAIL.n321 9.3005
R574 VTAIL.n361 VTAIL.n360 9.3005
R575 VTAIL.n274 VTAIL.n273 9.3005
R576 VTAIL.n281 VTAIL.n280 9.3005
R577 VTAIL.n283 VTAIL.n282 9.3005
R578 VTAIL.n270 VTAIL.n269 9.3005
R579 VTAIL.n289 VTAIL.n288 9.3005
R580 VTAIL.n291 VTAIL.n290 9.3005
R581 VTAIL.n265 VTAIL.n263 9.3005
R582 VTAIL.n297 VTAIL.n296 9.3005
R583 VTAIL.n313 VTAIL.n312 9.3005
R584 VTAIL.n256 VTAIL.n255 9.3005
R585 VTAIL.n307 VTAIL.n306 9.3005
R586 VTAIL.n305 VTAIL.n304 9.3005
R587 VTAIL.n260 VTAIL.n259 9.3005
R588 VTAIL.n299 VTAIL.n298 9.3005
R589 VTAIL.n210 VTAIL.n209 9.3005
R590 VTAIL.n217 VTAIL.n216 9.3005
R591 VTAIL.n219 VTAIL.n218 9.3005
R592 VTAIL.n206 VTAIL.n205 9.3005
R593 VTAIL.n225 VTAIL.n224 9.3005
R594 VTAIL.n227 VTAIL.n226 9.3005
R595 VTAIL.n201 VTAIL.n199 9.3005
R596 VTAIL.n233 VTAIL.n232 9.3005
R597 VTAIL.n249 VTAIL.n248 9.3005
R598 VTAIL.n192 VTAIL.n191 9.3005
R599 VTAIL.n243 VTAIL.n242 9.3005
R600 VTAIL.n241 VTAIL.n240 9.3005
R601 VTAIL.n196 VTAIL.n195 9.3005
R602 VTAIL.n235 VTAIL.n234 9.3005
R603 VTAIL.n469 VTAIL.n458 8.92171
R604 VTAIL.n500 VTAIL.n442 8.92171
R605 VTAIL.n29 VTAIL.n18 8.92171
R606 VTAIL.n60 VTAIL.n2 8.92171
R607 VTAIL.n91 VTAIL.n80 8.92171
R608 VTAIL.n122 VTAIL.n64 8.92171
R609 VTAIL.n155 VTAIL.n144 8.92171
R610 VTAIL.n186 VTAIL.n128 8.92171
R611 VTAIL.n438 VTAIL.n380 8.92171
R612 VTAIL.n409 VTAIL.n398 8.92171
R613 VTAIL.n374 VTAIL.n316 8.92171
R614 VTAIL.n345 VTAIL.n334 8.92171
R615 VTAIL.n312 VTAIL.n254 8.92171
R616 VTAIL.n283 VTAIL.n272 8.92171
R617 VTAIL.n248 VTAIL.n190 8.92171
R618 VTAIL.n219 VTAIL.n208 8.92171
R619 VTAIL.n466 VTAIL.n465 8.14595
R620 VTAIL.n26 VTAIL.n25 8.14595
R621 VTAIL.n88 VTAIL.n87 8.14595
R622 VTAIL.n152 VTAIL.n151 8.14595
R623 VTAIL.n406 VTAIL.n405 8.14595
R624 VTAIL.n342 VTAIL.n341 8.14595
R625 VTAIL.n280 VTAIL.n279 8.14595
R626 VTAIL.n216 VTAIL.n215 8.14595
R627 VTAIL.n462 VTAIL.n460 7.3702
R628 VTAIL.n22 VTAIL.n20 7.3702
R629 VTAIL.n84 VTAIL.n82 7.3702
R630 VTAIL.n148 VTAIL.n146 7.3702
R631 VTAIL.n402 VTAIL.n400 7.3702
R632 VTAIL.n338 VTAIL.n336 7.3702
R633 VTAIL.n276 VTAIL.n274 7.3702
R634 VTAIL.n212 VTAIL.n210 7.3702
R635 VTAIL.n465 VTAIL.n460 5.81868
R636 VTAIL.n25 VTAIL.n20 5.81868
R637 VTAIL.n87 VTAIL.n82 5.81868
R638 VTAIL.n151 VTAIL.n146 5.81868
R639 VTAIL.n405 VTAIL.n400 5.81868
R640 VTAIL.n341 VTAIL.n336 5.81868
R641 VTAIL.n279 VTAIL.n274 5.81868
R642 VTAIL.n215 VTAIL.n210 5.81868
R643 VTAIL.n466 VTAIL.n458 5.04292
R644 VTAIL.n502 VTAIL.n442 5.04292
R645 VTAIL.n26 VTAIL.n18 5.04292
R646 VTAIL.n62 VTAIL.n2 5.04292
R647 VTAIL.n88 VTAIL.n80 5.04292
R648 VTAIL.n124 VTAIL.n64 5.04292
R649 VTAIL.n152 VTAIL.n144 5.04292
R650 VTAIL.n188 VTAIL.n128 5.04292
R651 VTAIL.n440 VTAIL.n380 5.04292
R652 VTAIL.n406 VTAIL.n398 5.04292
R653 VTAIL.n376 VTAIL.n316 5.04292
R654 VTAIL.n342 VTAIL.n334 5.04292
R655 VTAIL.n314 VTAIL.n254 5.04292
R656 VTAIL.n280 VTAIL.n272 5.04292
R657 VTAIL.n250 VTAIL.n190 5.04292
R658 VTAIL.n216 VTAIL.n208 5.04292
R659 VTAIL.n470 VTAIL.n469 4.26717
R660 VTAIL.n500 VTAIL.n499 4.26717
R661 VTAIL.n30 VTAIL.n29 4.26717
R662 VTAIL.n60 VTAIL.n59 4.26717
R663 VTAIL.n92 VTAIL.n91 4.26717
R664 VTAIL.n122 VTAIL.n121 4.26717
R665 VTAIL.n156 VTAIL.n155 4.26717
R666 VTAIL.n186 VTAIL.n185 4.26717
R667 VTAIL.n438 VTAIL.n437 4.26717
R668 VTAIL.n410 VTAIL.n409 4.26717
R669 VTAIL.n374 VTAIL.n373 4.26717
R670 VTAIL.n346 VTAIL.n345 4.26717
R671 VTAIL.n312 VTAIL.n311 4.26717
R672 VTAIL.n284 VTAIL.n283 4.26717
R673 VTAIL.n248 VTAIL.n247 4.26717
R674 VTAIL.n220 VTAIL.n219 4.26717
R675 VTAIL.n473 VTAIL.n456 3.49141
R676 VTAIL.n496 VTAIL.n444 3.49141
R677 VTAIL.n33 VTAIL.n16 3.49141
R678 VTAIL.n56 VTAIL.n4 3.49141
R679 VTAIL.n95 VTAIL.n78 3.49141
R680 VTAIL.n118 VTAIL.n66 3.49141
R681 VTAIL.n159 VTAIL.n142 3.49141
R682 VTAIL.n182 VTAIL.n130 3.49141
R683 VTAIL.n434 VTAIL.n382 3.49141
R684 VTAIL.n413 VTAIL.n396 3.49141
R685 VTAIL.n370 VTAIL.n318 3.49141
R686 VTAIL.n349 VTAIL.n332 3.49141
R687 VTAIL.n308 VTAIL.n256 3.49141
R688 VTAIL.n287 VTAIL.n270 3.49141
R689 VTAIL.n244 VTAIL.n192 3.49141
R690 VTAIL.n223 VTAIL.n206 3.49141
R691 VTAIL.n253 VTAIL.n251 2.85395
R692 VTAIL.n315 VTAIL.n253 2.85395
R693 VTAIL.n379 VTAIL.n377 2.85395
R694 VTAIL.n441 VTAIL.n379 2.85395
R695 VTAIL.n189 VTAIL.n127 2.85395
R696 VTAIL.n127 VTAIL.n125 2.85395
R697 VTAIL.n63 VTAIL.n1 2.85395
R698 VTAIL.n461 VTAIL.n459 2.84303
R699 VTAIL.n21 VTAIL.n19 2.84303
R700 VTAIL.n83 VTAIL.n81 2.84303
R701 VTAIL.n147 VTAIL.n145 2.84303
R702 VTAIL.n401 VTAIL.n399 2.84303
R703 VTAIL.n337 VTAIL.n335 2.84303
R704 VTAIL.n275 VTAIL.n273 2.84303
R705 VTAIL.n211 VTAIL.n209 2.84303
R706 VTAIL VTAIL.n503 2.79576
R707 VTAIL.n474 VTAIL.n454 2.71565
R708 VTAIL.n495 VTAIL.n446 2.71565
R709 VTAIL.n34 VTAIL.n14 2.71565
R710 VTAIL.n55 VTAIL.n6 2.71565
R711 VTAIL.n96 VTAIL.n76 2.71565
R712 VTAIL.n117 VTAIL.n68 2.71565
R713 VTAIL.n160 VTAIL.n140 2.71565
R714 VTAIL.n181 VTAIL.n132 2.71565
R715 VTAIL.n433 VTAIL.n384 2.71565
R716 VTAIL.n414 VTAIL.n394 2.71565
R717 VTAIL.n369 VTAIL.n320 2.71565
R718 VTAIL.n350 VTAIL.n330 2.71565
R719 VTAIL.n307 VTAIL.n258 2.71565
R720 VTAIL.n288 VTAIL.n268 2.71565
R721 VTAIL.n243 VTAIL.n194 2.71565
R722 VTAIL.n224 VTAIL.n204 2.71565
R723 VTAIL.n479 VTAIL.n477 1.93989
R724 VTAIL.n492 VTAIL.n491 1.93989
R725 VTAIL.n39 VTAIL.n37 1.93989
R726 VTAIL.n52 VTAIL.n51 1.93989
R727 VTAIL.n101 VTAIL.n99 1.93989
R728 VTAIL.n114 VTAIL.n113 1.93989
R729 VTAIL.n165 VTAIL.n163 1.93989
R730 VTAIL.n178 VTAIL.n177 1.93989
R731 VTAIL.n430 VTAIL.n429 1.93989
R732 VTAIL.n418 VTAIL.n417 1.93989
R733 VTAIL.n366 VTAIL.n365 1.93989
R734 VTAIL.n354 VTAIL.n353 1.93989
R735 VTAIL.n304 VTAIL.n303 1.93989
R736 VTAIL.n292 VTAIL.n291 1.93989
R737 VTAIL.n240 VTAIL.n239 1.93989
R738 VTAIL.n228 VTAIL.n227 1.93989
R739 VTAIL.n0 VTAIL.t4 1.74962
R740 VTAIL.n0 VTAIL.t7 1.74962
R741 VTAIL.n126 VTAIL.t12 1.74962
R742 VTAIL.n126 VTAIL.t9 1.74962
R743 VTAIL.n378 VTAIL.t8 1.74962
R744 VTAIL.n378 VTAIL.t15 1.74962
R745 VTAIL.n252 VTAIL.t3 1.74962
R746 VTAIL.n252 VTAIL.t5 1.74962
R747 VTAIL.n478 VTAIL.n452 1.16414
R748 VTAIL.n488 VTAIL.n448 1.16414
R749 VTAIL.n38 VTAIL.n12 1.16414
R750 VTAIL.n48 VTAIL.n8 1.16414
R751 VTAIL.n100 VTAIL.n74 1.16414
R752 VTAIL.n110 VTAIL.n70 1.16414
R753 VTAIL.n164 VTAIL.n138 1.16414
R754 VTAIL.n174 VTAIL.n134 1.16414
R755 VTAIL.n426 VTAIL.n386 1.16414
R756 VTAIL.n421 VTAIL.n391 1.16414
R757 VTAIL.n362 VTAIL.n322 1.16414
R758 VTAIL.n357 VTAIL.n327 1.16414
R759 VTAIL.n300 VTAIL.n260 1.16414
R760 VTAIL.n295 VTAIL.n265 1.16414
R761 VTAIL.n236 VTAIL.n196 1.16414
R762 VTAIL.n231 VTAIL.n201 1.16414
R763 VTAIL.n377 VTAIL.n315 0.470328
R764 VTAIL.n125 VTAIL.n63 0.470328
R765 VTAIL.n484 VTAIL.n483 0.388379
R766 VTAIL.n487 VTAIL.n450 0.388379
R767 VTAIL.n44 VTAIL.n43 0.388379
R768 VTAIL.n47 VTAIL.n10 0.388379
R769 VTAIL.n106 VTAIL.n105 0.388379
R770 VTAIL.n109 VTAIL.n72 0.388379
R771 VTAIL.n170 VTAIL.n169 0.388379
R772 VTAIL.n173 VTAIL.n136 0.388379
R773 VTAIL.n425 VTAIL.n388 0.388379
R774 VTAIL.n422 VTAIL.n390 0.388379
R775 VTAIL.n361 VTAIL.n324 0.388379
R776 VTAIL.n358 VTAIL.n326 0.388379
R777 VTAIL.n299 VTAIL.n262 0.388379
R778 VTAIL.n296 VTAIL.n264 0.388379
R779 VTAIL.n235 VTAIL.n198 0.388379
R780 VTAIL.n232 VTAIL.n200 0.388379
R781 VTAIL.n467 VTAIL.n459 0.155672
R782 VTAIL.n468 VTAIL.n467 0.155672
R783 VTAIL.n468 VTAIL.n455 0.155672
R784 VTAIL.n475 VTAIL.n455 0.155672
R785 VTAIL.n476 VTAIL.n475 0.155672
R786 VTAIL.n476 VTAIL.n451 0.155672
R787 VTAIL.n485 VTAIL.n451 0.155672
R788 VTAIL.n486 VTAIL.n485 0.155672
R789 VTAIL.n486 VTAIL.n447 0.155672
R790 VTAIL.n493 VTAIL.n447 0.155672
R791 VTAIL.n494 VTAIL.n493 0.155672
R792 VTAIL.n494 VTAIL.n443 0.155672
R793 VTAIL.n501 VTAIL.n443 0.155672
R794 VTAIL.n27 VTAIL.n19 0.155672
R795 VTAIL.n28 VTAIL.n27 0.155672
R796 VTAIL.n28 VTAIL.n15 0.155672
R797 VTAIL.n35 VTAIL.n15 0.155672
R798 VTAIL.n36 VTAIL.n35 0.155672
R799 VTAIL.n36 VTAIL.n11 0.155672
R800 VTAIL.n45 VTAIL.n11 0.155672
R801 VTAIL.n46 VTAIL.n45 0.155672
R802 VTAIL.n46 VTAIL.n7 0.155672
R803 VTAIL.n53 VTAIL.n7 0.155672
R804 VTAIL.n54 VTAIL.n53 0.155672
R805 VTAIL.n54 VTAIL.n3 0.155672
R806 VTAIL.n61 VTAIL.n3 0.155672
R807 VTAIL.n89 VTAIL.n81 0.155672
R808 VTAIL.n90 VTAIL.n89 0.155672
R809 VTAIL.n90 VTAIL.n77 0.155672
R810 VTAIL.n97 VTAIL.n77 0.155672
R811 VTAIL.n98 VTAIL.n97 0.155672
R812 VTAIL.n98 VTAIL.n73 0.155672
R813 VTAIL.n107 VTAIL.n73 0.155672
R814 VTAIL.n108 VTAIL.n107 0.155672
R815 VTAIL.n108 VTAIL.n69 0.155672
R816 VTAIL.n115 VTAIL.n69 0.155672
R817 VTAIL.n116 VTAIL.n115 0.155672
R818 VTAIL.n116 VTAIL.n65 0.155672
R819 VTAIL.n123 VTAIL.n65 0.155672
R820 VTAIL.n153 VTAIL.n145 0.155672
R821 VTAIL.n154 VTAIL.n153 0.155672
R822 VTAIL.n154 VTAIL.n141 0.155672
R823 VTAIL.n161 VTAIL.n141 0.155672
R824 VTAIL.n162 VTAIL.n161 0.155672
R825 VTAIL.n162 VTAIL.n137 0.155672
R826 VTAIL.n171 VTAIL.n137 0.155672
R827 VTAIL.n172 VTAIL.n171 0.155672
R828 VTAIL.n172 VTAIL.n133 0.155672
R829 VTAIL.n179 VTAIL.n133 0.155672
R830 VTAIL.n180 VTAIL.n179 0.155672
R831 VTAIL.n180 VTAIL.n129 0.155672
R832 VTAIL.n187 VTAIL.n129 0.155672
R833 VTAIL.n439 VTAIL.n381 0.155672
R834 VTAIL.n432 VTAIL.n381 0.155672
R835 VTAIL.n432 VTAIL.n431 0.155672
R836 VTAIL.n431 VTAIL.n385 0.155672
R837 VTAIL.n424 VTAIL.n385 0.155672
R838 VTAIL.n424 VTAIL.n423 0.155672
R839 VTAIL.n423 VTAIL.n389 0.155672
R840 VTAIL.n416 VTAIL.n389 0.155672
R841 VTAIL.n416 VTAIL.n415 0.155672
R842 VTAIL.n415 VTAIL.n395 0.155672
R843 VTAIL.n408 VTAIL.n395 0.155672
R844 VTAIL.n408 VTAIL.n407 0.155672
R845 VTAIL.n407 VTAIL.n399 0.155672
R846 VTAIL.n375 VTAIL.n317 0.155672
R847 VTAIL.n368 VTAIL.n317 0.155672
R848 VTAIL.n368 VTAIL.n367 0.155672
R849 VTAIL.n367 VTAIL.n321 0.155672